data_image0
_chemical_formula_structural       O18C36H36C36H18C18H18C18H18C18H18C72H18C18H18C36H18C18H18C18H54C18H54C18H54O18H18
_chemical_formula_sum              "O36 C324 H360"
_cell_length_a       26.965
_cell_length_b       26.964999999999996
_cell_length_c       10.933
_cell_angle_alpha    90.0
_cell_angle_beta     90.0
_cell_angle_gamma    119.99999999999999

_space_group_name_H-M_alt    "P 1"
_space_group_IT_number       1

loop_
  _space_group_symop_operation_xyz
  'x, y, z'

loop_
  _atom_site_type_symbol
  _atom_site_label
  _atom_site_symmetry_multiplicity
  _atom_site_fract_x
  _atom_site_fract_y
  _atom_site_fract_z
  _atom_site_occupancy
  O   O1        1.0  0.08635356006134963  0.2605409060596479  0.37447013058988177  1.0000
  O   O2        1.0  0.7394590914114668  0.8258126472638541  0.37447022308446554  1.0000
  O   O3        1.0  0.1741873347291748  0.9136464219109225  0.37447011183489143  1.0000
  O   O4        1.0  0.7530202216752133  0.5938742365904256  0.7078035283190045  1.0000
  O   O5        1.0  0.4061257418802926  0.1591459370481796  0.7078033895806954  1.0000
  O   O6        1.0  0.8408539914971449  0.24697976564388596  0.7078034712532032  1.0000
  O   O7        1.0  0.419686888127301  0.9272075851392505  0.04113687492371887  1.0000
  O   O8        1.0  0.07279245415589297  0.49247934082558453  0.04113689789630056  1.0000
  O   O9        1.0  0.507520689671963  0.580313097542277  0.04113686375198275  1.0000
  O   O10       1.0  0.9135950093049461  0.7393347356485471  0.6256467243781111  1.0000
  O   O11       1.0  0.2606652917977239  0.1742603144400118  0.6256467219211111  1.0000
  O   O12       1.0  0.8257396230695796  0.0864049542953098  0.6256467170169066  1.0000
  O   O13       1.0  0.5802617055934327  0.07266804634414066  0.9589800605784158  1.0000
  O   O14       1.0  0.9273319608174603  0.5075936633314106  0.9589800388690235  1.0000
  O   O15       1.0  0.49240636660001075  0.4197383084025246  0.9589800140114427  1.0000
  O   O16       1.0  0.24692835020798323  0.40600137723934737  0.29231331753114376  1.0000
  O   O17       1.0  0.5939986526902244  0.8409270158562315  0.2923133321710095  1.0000
  O   O18       1.0  0.15907302664589296  0.7530716790086246  0.29231342927387727  1.0000
  C   C1        1.0  0.11068643878701527  0.22414026343372068  0.4065873245167217  1.0000
  C   C2        1.0  0.7758597066899984  0.8865461785692588  0.4065873545387816  1.0000
  C   C3        1.0  0.11345380235030743  0.8893135434727506  0.40658731280235005  1.0000
  C   C4        1.0  0.7773531040140169  0.557473598936249  0.7399206239298041  1.0000
  C   C5        1.0  0.44252638585635873  0.2198794983917762  0.7399206166458604  1.0000
  C   C6        1.0  0.7801204846893565  0.22264688269939004  0.7399205782572479  1.0000
  C   C7        1.0  0.44401977566034373  0.8908069446513556  0.07325396491161099  1.0000
  C   C8        1.0  0.10919303799065634  0.5532128209104838  0.07325399938090282  1.0000
  C   C9        1.0  0.4467871830887075  0.5559802489577567  0.07325404503465854  1.0000
  C   C10       1.0  0.8893109946596945  0.7757906836428855  0.5935473455170678  1.0000
  C   C11       1.0  0.22420928931380626  0.11352030155632263  0.593547404213604  1.0000
  C   C12       1.0  0.8864796711919667  0.1106889647444856  0.5935473741619708  1.0000
  C   C13       1.0  0.5559776930813263  0.10912402883132322  0.9268806326776978  1.0000
  C   C14       1.0  0.8908759206668251  0.4468536219441951  0.926880808559149  1.0000
  C   C15       1.0  0.5531463779371583  0.44402231746084087  0.9268807508612539  1.0000
  C   C16       1.0  0.22264435481213102  0.44245737057684115  0.26021404513528157  1.0000
  C   C17       1.0  0.557542641586041  0.78018702080812  0.26021398639819127  1.0000
  C   C18       1.0  0.21981302067067038  0.7773556165513134  0.2602140405340686  1.0000
  C   C19       1.0  0.16481351578806538  0.25913526560550965  0.4828154926563705  1.0000
  C   C20       1.0  0.740864707184613  0.9056782342257296  0.48281550665949435  1.0000
  C   C21       1.0  0.09432175133983023  0.8351865147707929  0.4828154919310541  1.0000
  C   C22       1.0  0.8314801556900739  0.5924686276117297  0.816148878925074  1.0000
  C   C23       1.0  0.40753140064809346  0.2390115836315566  0.8161488386713859  1.0000
  C   C24       1.0  0.7609884401882524  0.16851979237416806  0.8161487731209673  1.0000
  C   C25       1.0  0.49814685295792976  0.9258019266018904  0.14948213842304353  1.0000
  C   C26       1.0  0.07419806523806835  0.5723449516942176  0.1494821436981627  1.0000
  C   C27       1.0  0.42765507939188907  0.5018531490285039  0.14948215865761608  1.0000
  C   C28       1.0  0.8352284264534924  0.7408627996963443  0.5172026861059422  1.0000
  C   C29       1.0  0.25913724553369627  0.0943656270735131  0.5172027379216847  1.0000
  C   C30       1.0  0.9056343934778488  0.16477160389761963  0.5172027276180156  1.0000
  C   C31       1.0  0.5018950335597089  0.07419604630568545  0.8505360137997512  1.0000
  C   C32       1.0  0.9258038661487239  0.4276989209506739  0.8505360807133303  1.0000
  C   C33       1.0  0.5723010195633991  0.4981049290439324  0.8505360838777613  1.0000
  C   C34       1.0  0.16856170905020448  0.40752941625485223  0.18386945545192365  1.0000
  C   C35       1.0  0.5924706000908982  0.7610322710335098  0.18386940396909968  1.0000
  C   C36       1.0  0.23896768294764972  0.831438270565235  0.1838694478426316  1.0000
  H   H1        1.0  0.1958045780900704  0.2940657056480806  0.42401924299817106  1.0000
  H   H2        1.0  0.7059342937154774  0.9017388753416471  0.4240192343195021  1.0000
  H   H3        1.0  0.09826113048407215  0.8041954151697918  0.4240192348054034  1.0000
  H   H4        1.0  0.862471249495246  0.6273990355820607  0.757352538148491  1.0000
  H   H5        1.0  0.3726009691135293  0.23507219174429933  0.7573525503850754  1.0000
  H   H6        1.0  0.7649278049280708  0.13752875969565506  0.7573525242669257  1.0000
  H   H7        1.0  0.5291379165000407  0.9607323727095314  0.09068591224578791  1.0000
  H   H8        1.0  0.03926759508524073  0.5684055155861074  0.09068589651553507  1.0000
  H   H9        1.0  0.4315944652229471  0.4708620718949266  0.0906859149014045  1.0000
  H   H10       1.0  0.80420191787737  0.7059347221147629  0.5759563547205875  1.0000
  H   H11       1.0  0.2940652602084291  0.09826719606745005  0.5759562940366789  1.0000
  H   H12       1.0  0.9017328082004201  0.19579808340334287  0.5759563022150914  1.0000
  H   H13       1.0  0.4708685889838687  0.03926807712294078  0.9092896203727241  1.0000
  H   H14       1.0  0.9607319707813169  0.43160055556238613  0.9092896403680271  1.0000
  H   H15       1.0  0.5683994717142583  0.5291313746668685  0.9092895922764047  1.0000
  H   H16       1.0  0.13753524686487512  0.3726013902504209  0.2426229788331259  1.0000
  H   H17       1.0  0.6273986152749217  0.7649338701251077  0.2426229864808612  1.0000
  H   H18       1.0  0.2350661494903999  0.8624647806206608  0.24262299310616364  1.0000
  H   H19       1.0  0.1837509568071945  0.23234700772488523  0.5044834809073587  1.0000
  H   H20       1.0  0.7676530258783271  0.9514039741862205  0.504483531561422  1.0000
  H   H21       1.0  0.04859607785904887  0.8162490576177575  0.5044834917021699  1.0000
  H   H22       1.0  0.8504176269454831  0.5656803443441826  0.8378168109513959  1.0000
  H   H23       1.0  0.4343196608199444  0.28473728570989343  0.8378168279752434  1.0000
  H   H24       1.0  0.7152626706152729  0.1495823720540052  0.8378168329561058  1.0000
  H   H25       1.0  0.5170843040241054  0.8990136960572865  0.17115017315205608  1.0000
  H   H26       1.0  0.10098635910930397  0.618070622729105  0.17115020677834125  1.0000
  H   H27       1.0  0.38192938526420406  0.48291571993500854  0.1711501821781442  1.0000
  H   H28       1.0  0.8163087495436672  0.7676669256703269  0.49551017663650926  1.0000
  H   H29       1.0  0.23233307686351098  0.04864183272194514  0.4955101799542337  1.0000
  H   H30       1.0  0.9513581649646421  0.18369126430389557  0.4955101864364072  1.0000
  H   H31       1.0  0.4829754215813651  0.1010002524413003  0.8288435073222511  1.0000
  H   H32       1.0  0.89899970458089  0.3819751237119759  0.8288434645296199  1.0000
  H   H33       1.0  0.6180248489176514  0.5170245866381163  0.8288434746624379  1.0000
  H   H34       1.0  0.14964207812739946  0.4343335805476205  0.16217684748477548  1.0000
  H   H35       1.0  0.5656664292140926  0.7153085167101971  0.16217686881360857  1.0000
  H   H36       1.0  0.28469150473594057  0.8503579202255759  0.16217686211546914  1.0000
  C   C37       1.0  0.1572054062188798  0.2863041823825675  0.6009097132535757  1.0000
  C   C38       1.0  0.7136958055281936  0.8709012798289165  0.6009097403310706  1.0000
  C   C39       1.0  0.12909879330748017  0.8427945655144194  0.6009096922463735  1.0000
  C   C40       1.0  0.8238720721803576  0.6196375073450556  0.9342430463335286  1.0000
  C   C41       1.0  0.38036247411793506  0.2042345688462456  0.934243070862444  1.0000
  C   C42       1.0  0.7957654736597701  0.17612790201352643  0.9342431041836786  1.0000
  C   C43       1.0  0.4905387629029421  0.9529708875617067  0.2675764089728913  1.0000
  C   C44       1.0  0.04702913918843409  0.5375679163580527  0.2675763698804457  1.0000
  C   C45       1.0  0.4624320830180616  0.5094612239863304  0.2675763925520323  1.0000
  C   C46       1.0  0.8428372477379762  0.7137169669869076  0.39910279016742123  1.0000
  C   C47       1.0  0.2862829656559982  0.12912026591084522  0.3991027485863642  1.0000
  C   C48       1.0  0.8708797752539759  0.1571627095265054  0.3991028167635278  1.0000
  C   C49       1.0  0.5095039514107795  0.04705033959555966  0.7324360055569151  1.0000
  C   C50       1.0  0.9529496108663839  0.46245361195085194  0.7324360989355797  1.0000
  C   C51       1.0  0.5375464303991782  0.4904960399376623  0.7324360886183093  1.0000
  C   C52       1.0  0.176170665692227  0.3803837418563417  0.06576950652317001  1.0000
  C   C53       1.0  0.6196162916082391  0.7957869539781043  0.06576947284029619  1.0000
  C   C54       1.0  0.20421303182031952  0.8238292990699221  0.06576945304969814  1.0000
  C   C55       1.0  0.11774507615845925  0.3529459793768736  0.6467118905176296  1.0000
  C   C56       1.0  0.6470540627006528  0.7647991511527279  0.6467119392495088  1.0000
  C   C57       1.0  0.23520086291039877  0.8822549360356483  0.6467119955768083  1.0000
  C   C58       1.0  0.7844116918772224  0.6862793398453897  0.9800452051954137  1.0000
  C   C59       1.0  0.3137207206833502  0.09813242055509117  0.9800452251878519  1.0000
  C   C60       1.0  0.9018675450140645  0.2155882209418708  0.9800451590981097  1.0000
  C   C61       1.0  0.4510783577495376  0.019612641758509252  0.313378732511866  1.0000
  C   C62       1.0  0.9803874280042132  0.4314658382783639  0.3133784510945947  1.0000
  C   C63       1.0  0.5685341872403044  0.5489216212184923  0.31337848138455127  1.0000
  C   C64       1.0  0.8823219174235627  0.6471104912136052  0.35312864588806503  1.0000
  C   C65       1.0  0.35288945707990005  0.23521136767754014  0.35312860319892264  1.0000
  C   C66       1.0  0.7647886841920744  0.1176780476991424  0.3531286767345287  1.0000
  C   C67       1.0  0.5489885785577349  0.9804438724870712  0.6864618664061216  1.0000
  C   C68       1.0  0.019556187565224595  0.5685447875530315  0.6864619627104259  1.0000
  C   C69       1.0  0.4314552865105667  0.45101143247765413  0.686462055603522  1.0000
  C   C70       1.0  0.21565528097692846  0.31377723716058364  0.01979539735406942  1.0000
  C   C71       1.0  0.6862228080394264  0.9018781027900252  0.01979539702036065  1.0000
  C   C72       1.0  0.09812191219752546  0.7843447255847006  0.019795395083610792  1.0000
  H   H37       1.0  0.14312096463352744  0.3656542066109001  0.7305058281743614  1.0000
  H   H38       1.0  0.6343457878692229  0.7774667396535645  0.7305057710723525  1.0000
  H   H39       1.0  0.2225332547816546  0.856879022269136  0.7305057945280486  1.0000
  H   H40       1.0  0.8097876438725509  0.6989875476388082  0.06383918145210736  1.0000
  H   H41       1.0  0.30101242458708904  0.1108000941462919  0.0638392494044138  1.0000
  H   H42       1.0  0.8891999046455422  0.19021235596165634  0.06383920978166525  1.0000
  H   H43       1.0  0.47645431809633054  0.03232090089034755  0.397172468708674  1.0000
  H   H44       1.0  0.9676791117002954  0.4441334221126722  0.39717252989920804  1.0000
  H   H45       1.0  0.5558665832348233  0.5235456815689303  0.3971725068458924  1.0000
  H   H46       1.0  0.8569966385139397  0.6344671022306799  0.2692657285685788  1.0000
  H   H47       1.0  0.3655329138186548  0.2225295349364124  0.26926576124412877  1.0000
  H   H48       1.0  0.7774704386092808  0.14300336181343878  0.2692657736171  1.0000
  H   H49       1.0  0.5236632997606626  0.9678004233239963  0.6025990850194904  1.0000
  H   H50       1.0  0.03219956356078367  0.5558628686580527  0.6025990674243907  1.0000
  H   H51       1.0  0.4441371186112651  0.4763366862232959  0.6025990628442244  1.0000
  H   H52       1.0  0.19032996065660354  0.3011337584286849  0.9359324329221669  1.0000
  H   H53       1.0  0.6988662564204937  0.8891962162637672  0.9359323754526749  1.0000
  H   H54       1.0  0.11080379718975247  0.8096700451334213  0.9359323399749363  1.0000
  C   C73       1.0  0.0844485583055917  0.3777621522239598  0.619859397884023  1.0000
  C   C74       1.0  0.6222378261105452  0.7066864364500988  0.6198594731955869  1.0000
  C   C75       1.0  0.2933135987655977  0.9155514448267247  0.6198595094650767  1.0000
  C   C76       1.0  0.7511153239032416  0.7110954763222589  0.9531926878052959  1.0000
  C   C77       1.0  0.288904507176099  0.04001977810203918  0.9531927434599214  1.0000
  C   C78       1.0  0.9599802787180081  0.24888482049447344  0.9531927752521809  1.0000
  C   C79       1.0  0.41778191046465185  0.04442882329297663  0.2865259230105936  1.0000
  C   C80       1.0  0.9555711208233058  0.3733530199078599  0.28652622740691447  1.0000
  C   C81       1.0  0.6266469462260021  0.5822180686207727  0.28652617399402425  1.0000
  C   C82       1.0  0.9155916466380304  0.6222627785956647  0.379937868351878  1.0000
  C   C83       1.0  0.3777372173963506  0.293328854830067  0.37993790853780945  1.0000
  C   C84       1.0  0.7066711329464823  0.08440839366669019  0.3799378549922864  1.0000
  C   C85       1.0  0.5822583372470314  0.955596166299881  0.7132712598729903  1.0000
  C   C86       1.0  0.04440386351981959  0.6266621361032084  0.7132711307502918  1.0000
  C   C87       1.0  0.3733378045790767  0.41774169350789175  0.7132712324780863  1.0000
  C   C88       1.0  0.24892494894422765  0.28892941974783914  0.04660455320152884  1.0000
  C   C89       1.0  0.7110705535742441  0.9599954757543187  0.04660452518581338  1.0000
  C   C90       1.0  0.040004523638485924  0.7510750243077098  0.046604471069516415  1.0000
  H   H55       1.0  0.08383731538988722  0.40889618106056896  0.6824560968121993  1.0000
  H   H56       1.0  0.59110380631136  0.6749411061251863  0.6824560939953592  1.0000
  H   H57       1.0  0.32505885733158096  0.9161626871015353  0.6824560047324638  1.0000
  H   H58       1.0  0.7505039665490447  0.7422295192975933  0.015789471923194343  1.0000
  H   H59       1.0  0.25777047985364243  0.008274451917890837  0.01578948365542539  1.0000
  H   H60       1.0  0.9917255441619867  0.2494960208072561  0.01578944927413089  1.0000
  H   H61       1.0  0.41717064709471074  0.07556286930027614  0.34912283942199596  1.0000
  H   H62       1.0  0.924437152196925  0.34160779632707966  0.34912279454134426  1.0000
  H   H63       1.0  0.6583921798510732  0.5828293615738461  0.34912275684520316  1.0000
  H   H64       1.0  0.9162234810660741  0.5911684322643391  0.317253745760349  1.0000
  H   H65       1.0  0.40883155561268486  0.32505505437039073  0.31725377939062716  1.0000
  H   H66       1.0  0.6749449348455994  0.08377651115011994  0.317253758807552  1.0000
  H   H67       1.0  0.582890160414056  0.9245017820041158  0.650587131481301  1.0000
  H   H68       1.0  0.07549823492857367  0.658388396572344  0.6505871112189436  1.0000
  H   H69       1.0  0.3416115988407972  0.4171098430098778  0.6505870846855816  1.0000
  H   H70       1.0  0.2495568254137556  0.2578351012893369  0.9839203848231692  1.0000
  H   H71       1.0  0.7421649190555638  0.9917217582000024  0.9839203774447669  1.0000
  H   H72       1.0  0.008278251697459882  0.7504431902789613  0.9839204054022338  1.0000
  C   C91       1.0  0.052238908114080634  0.3624025968453216  0.5119600582770617  1.0000
  C   C92       1.0  0.637597321525084  0.6898361761725156  0.5119599141706085  1.0000
  C   C93       1.0  0.31016367416864027  0.9477610217032525  0.5119598657139361  1.0000
  C   C94       1.0  0.7189055179818125  0.6957359185128089  0.8452933846866139  1.0000
  C   C95       1.0  0.30426404895264725  0.02316961335501169  0.8452932669484257  1.0000
  C   C96       1.0  0.9768303865571675  0.28109440330451707  0.8452932718603823  1.0000
  C   C97       1.0  0.38557227916004333  0.029069276364665043  0.17862673565510181  1.0000
  C   C98       1.0  0.9709307425204288  0.35650297539318376  0.1786265556199684  1.0000
  C   C99       1.0  0.6434969823291906  0.614427761148719  0.17862654432887826  1.0000
  C   C100      1.0  0.9477513322369435  0.6375465839083493  0.48790462342471363  1.0000
  C   C101      1.0  0.36245345003002055  0.3102048104471142  0.48790459834947136  1.0000
  C   C102      1.0  0.6897952681265087  0.05224864004577234  0.487904696368006  1.0000
  C   C103      1.0  0.6144179907934271  0.9708798921652065  0.8212380210734144  1.0000
  C   C104      1.0  0.029120081891837138  0.6435381887293711  0.8212379831782056  1.0000
  C   C105      1.0  0.35646193071585963  0.38558194111343763  0.8212379542494288  1.0000
  C   C106      1.0  0.28108469365555383  0.30421329095935873  0.15457134650804455  1.0000
  C   C107      1.0  0.6957867682814358  0.9768714762568554  0.1545712675027529  1.0000
  C   C108      1.0  0.02312849810590576  0.7189153096444528  0.15457139882520285  1.0000
  H   H73       1.0  0.025888133828799637  0.38120081816353824  0.4883811270892092  1.0000
  H   H74       1.0  0.6187992220655313  0.6446873672574728  0.48838114114653003  1.0000
  H   H75       1.0  0.35531268930684984  0.9741118891476473  0.48838113830266416  1.0000
  H   H76       1.0  0.6925548105890351  0.7145341659070505  0.8217144052830018  1.0000
  H   H77       1.0  0.2854658595060976  0.9780206817930129  0.8217144643270559  1.0000
  H   H78       1.0  0.02197936197773756  0.3074452095942378  0.8217144863443895  1.0000
  H   H79       1.0  0.35922144183420557  0.04786749882524263  0.15504781663397674  1.0000
  H   H80       1.0  0.9521325408647862  0.31135403370293524  0.15504786895849718  1.0000
  H   H81       1.0  0.6886460280800726  0.6407785443315315  0.1550478260497176  1.0000
  H   H82       1.0  0.9740715110748203  0.6187109080020586  0.5114482008523235  1.0000
  H   H83       1.0  0.38128907918599225  0.3553605880682055  0.5114482157513304  1.0000
  H   H84       1.0  0.6446394096790483  0.025928517041302813  0.5114482171329925  1.0000
  H   H85       1.0  0.6407381900030971  0.9520442507752596  0.8447815142088839  1.0000
  H   H86       1.0  0.04795573860472636  0.6886938688934878  0.8447814938121987  1.0000
  H   H87       1.0  0.3113060723839444  0.3592618492359032  0.8447815639057754  1.0000
  H   H88       1.0  0.30740481728835783  0.28537756853186697  0.1781148641221006  1.0000
  H   H89       1.0  0.714622393302387  0.022027221714709028  0.17811487445993912  1.0000
  H   H90       1.0  0.9779727832665788  0.6925951933133693  0.1781148424265799  1.0000
  C   C109      1.0  0.05404089198789587  0.3230079867390842  0.4328774681246047  1.0000
  C   C110      1.0  0.6769920570914729  0.7310329689801239  0.43287747321658543  1.0000
  C   C111      1.0  0.2689670629631245  0.9459590796734841  0.43287767296838353  1.0000
  C   C112      1.0  0.7207075923236127  0.6563412953650672  0.7662108653606174  1.0000
  C   C113      1.0  0.34365871678128296  0.0643662513307268  0.7662107366411963  1.0000
  C   C114      1.0  0.9356337366129113  0.2792924407174222  0.7662107747364046  1.0000
  C   C115      1.0  0.3873741988466565  0.9896745871209645  0.09954412106412389  1.0000
  C   C116      1.0  0.01032536244059941  0.39769959649455516  0.09954411433313104  1.0000
  C   C117      1.0  0.6023004438824563  0.6126258002440291  0.09954423806623326  1.0000
  C   C118      1.0  0.9459152445875356  0.6768883021345754  0.5670908495769587  1.0000
  C   C119      1.0  0.3231117193477219  0.26902702928502203  0.5670909952112484  1.0000
  C   C120      1.0  0.7309729259739889  0.05408469783886303  0.5670909539902915  1.0000
  C   C121      1.0  0.6125819319727651  0.010221596832163  0.9004241225548462  1.0000
  C   C122      1.0  0.989778392629204  0.6023602946948516  0.900424342796812  1.0000
  C   C123      1.0  0.39763963408543745  0.3874181080071406  0.9004241978141969  1.0000
  C   C124      1.0  0.2792486083350046  0.3435548975112505  0.23375754521007597  1.0000
  C   C125      1.0  0.6564450748747335  0.9356937095925252  0.23375764358416076  1.0000
  C   C126      1.0  0.06430630556830623  0.7207513469769483  0.23375762551975587  1.0000
  H   H91       1.0  0.03031052850509345  0.3115820900363912  0.3469654518245363  1.0000
  H   H92       1.0  0.6884178931190372  0.7187284202630991  0.34696545834843256  1.0000
  H   H93       1.0  0.28127154787540604  0.9696894663832132  0.3469654251676817  1.0000
  H   H94       1.0  0.6969772000526601  0.64491544197327  0.6802988196822736  1.0000
  H   H95       1.0  0.3550845732271339  0.052061787415264994  0.6802987899615622  1.0000
  H   H96       1.0  0.9479382445525077  0.30302280768750556  0.6802987981514651  1.0000
  H   H97       1.0  0.36364385521709736  0.9782487562383865  0.013632123569166587  1.0000
  H   H98       1.0  0.02175125234095373  0.3853951061146762  0.013632074280302043  1.0000
  H   H99       1.0  0.6146048887711266  0.6363561239260637  0.01363210978499366  1.0000
  H   H100      1.0  0.9696129761620358  0.6882516893983014  0.6530420484212262  1.0000
  H   H101      1.0  0.31174829579283575  0.2813612235902397  0.6530419520110028  1.0000
  H   H102      1.0  0.7186387530344414  0.03038705540717266  0.6530419924096876  1.0000
  H   H103      1.0  0.63627962283214  0.021585043373997123  0.9863753290838521  1.0000
  H   H104      1.0  0.9784149661536428  0.6146945486300268  0.9863752528416924  1.0000
  H   H105      1.0  0.38530542105564053  0.3637203702566433  0.9863753689926842  1.0000
  H   H106      1.0  0.30294627788133016  0.35491837137908505  0.31970866833181255  1.0000
  H   H107      1.0  0.6450816283888466  0.9480279154093927  0.3197087197495835  1.0000
  H   H108      1.0  0.05197211315060232  0.6970537402890584  0.3197087119284531  1.0000
  C   C127      1.0  0.08727056903592305  0.29765519877965896  0.46107903458995164  1.0000
  C   C128      1.0  0.7023448596829732  0.7896153893194825  0.46107898824979854  1.0000
  C   C129      1.0  0.2103846993548244  0.9127295123516331  0.4610788920783871  1.0000
  C   C130      1.0  0.7539372433626931  0.6309885288043642  0.7944122311963039  1.0000
  C   C131      1.0  0.3690114916967677  0.12294869829501702  0.794412294656904  1.0000
  C   C132      1.0  0.8770512498750649  0.24606277557423845  0.7944123675609465  1.0000
  C   C133      1.0  0.4206039121460024  0.9643218710130481  0.12774565183736422  1.0000
  C   C134      1.0  0.03567815062789259  0.45628205730150295  0.12774561079558913  1.0000
  C   C135      1.0  0.5437179455660216  0.5793960886858649  0.12774563317192583  1.0000
  C   C136      1.0  0.9127202625118715  0.7022814398107122  0.5389247989035104  1.0000
  C   C137      1.0  0.2977185789986701  0.21043878310424097  0.5389247294684761  1.0000
  C   C138      1.0  0.7895612876395808  0.08727981114385351  0.5389246747709653  1.0000
  C   C139      1.0  0.5793868844967494  0.03561473039935242  0.87225799824711  1.0000
  C   C140      1.0  0.9643852211407935  0.5437721633244191  0.8722581406632189  1.0000
  C   C141      1.0  0.45622789524805407  0.4206131256605842  0.8722579637125364  1.0000
  C   C142      1.0  0.24605352879556439  0.36894807008596703  0.20559138474878155  1.0000
  C   C143      1.0  0.6310518656254975  0.8771054174084695  0.20559143328516882  1.0000
  C   C144      1.0  0.12289454292017152  0.7539464362686649  0.2055914293193876  1.0000
  C   C145      1.0  0.11984572593267444  0.3123092404977986  0.5697162667441489  1.0000
  C   C146      1.0  0.687690745575666  0.8075364914880514  0.5697161942796823  1.0000
  C   C147      1.0  0.19246347636245625  0.8801541933029586  0.5697162538764169  1.0000
  C   C148      1.0  0.786512423060623  0.6456425699723174  0.9030496397234818  1.0000
  C   C149      1.0  0.3543573936934002  0.14086983848239307  0.903049619239678  1.0000
  C   C150      1.0  0.8591301564621694  0.21348758393946513  0.9030495410054146  1.0000
  C   C151      1.0  0.45317908629117043  0.9789758888711316  0.23638288589456322  1.0000
  C   C152      1.0  0.02102406163688829  0.47420310331206433  0.23638309600456014  1.0000
  C   C153      1.0  0.5257968490229427  0.5468209001042676  0.236383047542543  1.0000
  C   C154      1.0  0.8801999754624863  0.6877117496859761  0.4302152076927454  1.0000
  C   C155      1.0  0.3122882857881665  0.19248828734826243  0.430215227641068  1.0000
  C   C156      1.0  0.8075116539475691  0.1198000182538603  0.43021523298947584  1.0000
  C   C157      1.0  0.5468666608108332  0.02104504626464892  0.7635486256870332  1.0000
  C   C158      1.0  0.9789549998739749  0.5258216136998355  0.7635484990806789  1.0000
  C   C159      1.0  0.4741783578092672  0.453133317259097  0.7635485016788074  1.0000
  C   C160      1.0  0.21353332084340212  0.35437833163422694  0.09688180776232178  1.0000
  C   C161      1.0  0.6456216169211703  0.8591549159348425  0.09688195303016303  1.0000
  C   C162      1.0  0.14084506667019053  0.7864666927756674  0.09688183876708184  1.0000
  C   C163      1.0  0.13176947055021673  0.24220586045021142  0.705888480241467  1.0000
  C   C164      1.0  0.7577941242191718  0.8895636338558967  0.705888434525939  1.0000
  C   C165      1.0  0.11043634872253744  0.8682304791782918  0.7058884395102639  1.0000
  C   C166      1.0  0.7984361290114543  0.5755392081432635  0.03922176920767482  1.0000
  C   C167      1.0  0.4244607936729933  0.22289689666263296  0.03922178108843809  1.0000
  C   C168      1.0  0.7771030238194937  0.2015638593390132  0.03922187187016741  1.0000
  C   C169      1.0  0.4651027864408163  0.9088724820179773  0.3725550610910137  1.0000
  C   C170      1.0  0.09112747928685988  0.5562302800314605  0.3725550726388741  1.0000
  C   C171      1.0  0.44376974801462327  0.5348972242748228  0.3725551490255638  1.0000
  C   C172      1.0  0.8682656190061198  0.7578354284247864  0.29413277337019844  1.0000
  C   C173      1.0  0.242164617747082  0.11043017923740667  0.29413270698066296  1.0000
  C   C174      1.0  0.8895698101537137  0.13173443684921096  0.29413271186808626  1.0000
  C   C175      1.0  0.5349322676821914  0.0911687108712975  0.6274661012134002  1.0000
  C   C176      1.0  0.9088312935964316  0.44376353359155  0.627466010244269  1.0000
  C   C177      1.0  0.5562364330213725  0.46506773692758485  0.6274660345275209  1.0000
  C   C178      1.0  0.20159893082061642  0.4245020690438761  0.9607992988902211  1.0000
  C   C179      1.0  0.5754978914919952  0.7770967884084116  0.9607992958239371  1.0000
  C   C180      1.0  0.22290312248199007  0.7984010497995877  0.9607992128245796  1.0000
  C   C181      1.0  0.15993307373414778  0.21312658828986367  0.7456684744342067  1.0000
  C   C182      1.0  0.7868733632471988  0.9468064023341293  0.7456685063928163  1.0000
  C   C183      1.0  0.05319354528350449  0.840067072128325  0.745668746261089  1.0000
  C   C184      1.0  0.8265997154321776  0.5464598987917492  0.07900193917673946  1.0000
  C   C185      1.0  0.4535400713300863  0.28013986835647126  0.07900194987430122  1.0000
  C   C186      1.0  0.7198602327018356  0.17340024997820364  0.07900186466859258  1.0000
  C   C187      1.0  0.4932663862058115  0.8797932486592218  0.41233525554277234  1.0000
  C   C188      1.0  0.12020671347182309  0.6134731175792191  0.41233527274135623  1.0000
  C   C189      1.0  0.38652683552189326  0.5067335859623567  0.4123353186665545  1.0000
  C   C190      1.0  0.8401076953633576  0.7869153221222868  0.2543412363954746  1.0000
  C   C191      1.0  0.21308469328686638  0.05319241578908309  0.2543412681166864  1.0000
  C   C192      1.0  0.9468075772616005  0.15989228800974273  0.2543412944540392  1.0000
  C   C193      1.0  0.5067743641437419  0.12024869381198507  0.5876745181019178  1.0000
  C   C194      1.0  0.8797513385721234  0.3865257395038572  0.5876745462303479  1.0000
  C   C195      1.0  0.6134743108892078  0.49322562102618733  0.5876745445678351  1.0000
  C   C196      1.0  0.17344100605587834  0.4535819577762741  0.9210079647126478  1.0000
  C   C197      1.0  0.5464181037292776  0.7198591273853254  0.9210080727424055  1.0000
  C   C198      1.0  0.2801409050825281  0.8265589269968158  0.9210080017795638  1.0000
  H   H109      1.0  0.20020604778709497  0.22170599027993265  0.7038456638163577  1.0000
  H   H110      1.0  0.7782940232011386  0.978500077685021  0.7038456674547993  1.0000
  H   H111      1.0  0.02149993499284945  0.7997939146073889  0.7038456075386031  1.0000
  H   H112      1.0  0.8668726841376427  0.5550393274855253  0.03717903368434407  1.0000
  H   H113      1.0  0.4449606855950198  0.31183336735923967  0.03717903503220068  1.0000
  H   H114      1.0  0.6881666164333793  0.13312730038812712  0.037179041119528765  1.0000
  H   H115      1.0  0.5335393733424872  0.8883726727745328  0.3705123662758377  1.0000
  H   H116      1.0  0.11162733875273177  0.6451667049881548  0.3705123303292773  1.0000
  H   H117      1.0  0.3548332840784811  0.4664606335291034  0.37051232872722145  1.0000
  H   H118      1.0  0.7998507684032232  0.778363804601198  0.2962125406003891  1.0000
  H   H119      1.0  0.22163619840300933  0.02148696615757454  0.2962125193860695  1.0000
  H   H120      1.0  0.9785130726083947  0.20014924402674408  0.29621250032249324  1.0000
  H   H121      1.0  0.4665174471009742  0.11169713784670689  0.6295458323785368  1.0000
  H   H122      1.0  0.8883028598093758  0.35482027060991506  0.6295458536287728  1.0000
  H   H123      1.0  0.6451796905391709  0.5334825444801259  0.6295458153012307  1.0000
  H   H124      1.0  0.1331841028005742  0.44503047580025124  0.9628791730779827  1.0000
  H   H125      1.0  0.5549695336355034  0.6881536347982105  0.9628791632219484  1.0000
  H   H126      1.0  0.3118463831672874  0.8668159129679435  0.962879184776091  1.0000
  C   C199      1.0  0.13719792664516636  0.17150911087049228  0.8371463117123463  1.0000
  C   C200      1.0  0.8284908694130724  0.9656888006699472  0.8371462475546968  1.0000
  C   C201      1.0  0.03431120117188691  0.8628019990915856  0.8371462055047296  1.0000
  C   C202      1.0  0.8038646451135261  0.5048424630539758  0.170479689351138  1.0000
  C   C203      1.0  0.4951575455587805  0.29902211034351767  0.17047957923408572  1.0000
  C   C204      1.0  0.7009778487151751  0.1961354264632603  0.1704796440154049  1.0000
  C   C205      1.0  0.4705312777295693  0.838175791140595  0.503812968410169  1.0000
  C   C206      1.0  0.16182421885804701  0.6323555286357997  0.5038128905274998  1.0000
  C   C207      1.0  0.367644570205111  0.5294687716609624  0.5038128883265109  1.0000
  C   C208      1.0  0.8628392781314819  0.8285256340309797  0.16283765386028673  1.0000
  C   C209      1.0  0.1714743476308798  0.03431362033165238  0.16283762553495063  1.0000
  C   C210      1.0  0.9656863319595531  0.13716069858892435  0.16283771792169155  1.0000
  C   C211      1.0  0.5295060538375747  0.16185892900147925  0.4961709538350131  1.0000
  C   C212      1.0  0.8381410723554693  0.3676470559700034  0.4961710443252126  1.0000
  C   C213      1.0  0.6323529944648727  0.4704940249359456  0.49617103277982183  1.0000
  C   C214      1.0  0.19617267023385795  0.4951923055445994  0.8295042282307418  1.0000
  C   C215      1.0  0.5048076190128272  0.7009802484379565  0.8295041085099957  1.0000
  C   C216      1.0  0.29901962379672165  0.8038273015872327  0.8295041579800229  1.0000
  H   H127      1.0  0.1598845986620389  0.14941307814674584  0.8652580904319238  1.0000
  H   H128      1.0  0.8505869554458951  0.010471557102224565  0.8652581241139761  1.0000
  H   H129      1.0  0.9895284514464268  0.840115381436642  0.8652580775645141  1.0000
  H   H130      1.0  0.8265512296739017  0.48274642214972324  0.19859141309330436  1.0000
  H   H131      1.0  0.5172535738667676  0.34380484549736035  0.19859144660429093  1.0000
  H   H132      1.0  0.6561951184693061  0.17344871403201575  0.19859147643867864  1.0000
  H   H133      1.0  0.493217937391397  0.8160797419633031  0.5319247686225551  1.0000
  H   H134      1.0  0.18392023350732917  0.6771381061453011  0.5319247448651567  1.0000
  H   H135      1.0  0.32286178087871525  0.5067820410511767  0.5319247970176444  1.0000
  H   H136      1.0  0.8401682884969701  0.850640795743175  0.13474325728406295  1.0000
  H   H137      1.0  0.1493592542026179  0.9895275966687055  0.13474327275819545  1.0000
  H   H138      1.0  0.010472507430636104  0.1598317120965135  0.13474322385016568  1.0000
  H   H139      1.0  0.5068349588183919  0.18397410963017885  0.46807657577575273  1.0000
  H   H140      1.0  0.8160258957834607  0.32286085875183546  0.4680765363368394  1.0000
  H   H141      1.0  0.6771391645245657  0.49316504417576756  0.46807656634495487  1.0000
  H   H142      1.0  0.17350162304323738  0.5173074346808249  0.8014099176388328  1.0000
  H   H143      1.0  0.48269257107396507  0.6561942146657581  0.8014099285303813  1.0000
  H   H144      1.0  0.3438058316802236  0.826498380071473  0.8014098927696784  1.0000
  C   C217      1.0  0.08490835781942038  0.15765503609644427  0.8919518745891386  1.0000
  C   C218      1.0  0.8423449423539147  0.9272533189384855  0.8919518833250409  1.0000
  C   C219      1.0  0.07274666403551547  0.9150916488579495  0.8919519104314046  1.0000
  C   C220      1.0  0.7515750048023976  0.4909883700042929  0.22528523500262113  1.0000
  C   C221      1.0  0.5090116220206473  0.26058670765465636  0.22528526356102668  1.0000
  C   C222      1.0  0.7394133488882142  0.24842492047778386  0.22528518125141822  1.0000
  C   C223      1.0  0.41824168902421904  0.8243217425817099  0.5586184392356608  1.0000
  C   C224      1.0  0.1756782985874168  0.5939199189863729  0.5586185679897648  1.0000
  C   C225      1.0  0.40607996483936765  0.5817582808908023  0.5586185423170765  1.0000
  C   C226      1.0  0.9151061455300564  0.8423473384502694  0.10798857219458814  1.0000
  C   C227      1.0  0.1576526611846055  0.0727588522178596  0.1079886539908277  1.0000
  C   C228      1.0  0.9272412432947986  0.08489388072208115  0.10798860449847483  1.0000
  C   C229      1.0  0.5817727175862974  0.17568068783529886  0.4413220620464651  1.0000
  C   C230      1.0  0.8243193522450651  0.406092118558181  0.44132199218850815  1.0000
  C   C231      1.0  0.5939079077801026  0.41822724731277877  0.4413220521718591  1.0000
  C   C232      1.0  0.24843947631820285  0.5090139853130526  0.7746554815184425  1.0000
  C   C233      1.0  0.4909860943828256  0.7394256222078447  0.7746554096819623  1.0000
  C   C234      1.0  0.260574590451308  0.7515606435177407  0.7746554861430314  1.0000
  C   C235      1.0  0.05695150790014035  0.18710806663903595  0.8566387829290573  1.0000
  C   C236      1.0  0.8128918879998638  0.8698434860278884  0.8566387252468483  1.0000
  C   C237      1.0  0.13015663561239096  0.9430485046540961  0.8566386911054811  1.0000
  C   C238      1.0  0.7236181976412508  0.5204414565934737  0.18997199294928915  1.0000
  C   C239      1.0  0.47955852329147086  0.2031766913374223  0.18997204859118952  1.0000
  C   C240      1.0  0.7968232158223646  0.2763818151696908  0.1899721615037833  1.0000
  C   C241      1.0  0.39028486386918737  0.8537747348980862  0.5233053208435371  1.0000
  C   C242      1.0  0.14622519561601136  0.5365101181073714  0.5233053589630857  1.0000
  C   C243      1.0  0.4634899308268032  0.6097151274508597  0.5233053668648201  1.0000
  C   C244      1.0  0.9430713108790909  0.8129121057705061  0.14336000322860074  1.0000
  C   C245      1.0  0.1870879287562424  0.13015912045051387  0.1433600040586405  1.0000
  C   C246      1.0  0.8698408305650078  0.05692868585363976  0.1433599023577417  1.0000
  C   C247      1.0  0.6097379690968043  0.146245404650341  0.47669317340746076  1.0000
  C   C248      1.0  0.8537546067116248  0.4634924686155813  0.476693309922081  1.0000
  C   C249      1.0  0.5365074011277869  0.39026205457167157  0.47669331911999396  1.0000
  C   C250      1.0  0.2764045884477195  0.4795787702293299  0.8100265066652281  1.0000
  C   C251      1.0  0.5204211426597636  0.7968257304505352  0.8100264296258776  1.0000
  C   C252      1.0  0.20317412521182251  0.7235953083068801  0.8100263472433613  1.0000
  H   H145      1.0  0.016491016868081423  0.1772471439355003  0.8993540390933564  1.0000
  H   H146      1.0  0.8227528739227552  0.8392438624076157  0.8993540615568897  1.0000
  H   H147      1.0  0.1607561080407319  0.9835089880570889  0.8993540605198158  1.0000
  H   H148      1.0  0.6831577042533021  0.5105804624970444  0.23268741627618034  1.0000
  H   H149      1.0  0.4894195353364207  0.1725772307414836  0.23268738251309246  1.0000
  H   H150      1.0  0.8274228162371009  0.3168423475619198  0.23268741066954646  1.0000
  H   H151      1.0  0.3498243520670593  0.8439138070033976  0.5660207145548068  1.0000
  H   H152      1.0  0.15608622100999367  0.505910573297713  0.5660207142581635  1.0000
  H   H153      1.0  0.49408945865965326  0.6501756650005286  0.5660207077788508  1.0000
  H   H154      1.0  0.9835202675287698  0.8227486421897663  0.10062849251789009  1.0000
  H   H155      1.0  0.17725137171609046  0.16077158547622347  0.10062851931658356  1.0000
  H   H156      1.0  0.8392283758862542  0.016479768660538914  0.10062852955363721  1.0000
  H   H157      1.0  0.6501868508617463  0.15608195503177205  0.4339619029699725  1.0000
  H   H158      1.0  0.8439180420198585  0.494104932515319  0.4339618673877522  1.0000
  H   H159      1.0  0.5058950649715863  0.3498131042532207  0.43396186770728656  1.0000
  H   H160      1.0  0.3168535527073145  0.4894152772298896  0.7672952056270396  1.0000
  H   H161      1.0  0.5105847127106025  0.8274382729002583  0.7672951838569694  1.0000
  H   H162      1.0  0.17256174861588497  0.6831464628876713  0.7672952043375104  1.0000
  C   C253      1.0  0.08027712870875937  0.22849867156256487  0.7647369744954351  1.0000
  C   C254      1.0  0.7715014305895743  0.8517784857394918  0.7647369615231877  1.0000
  C   C255      1.0  0.14822148057140253  0.9197228836036176  0.7647369406803756  1.0000
  C   C256      1.0  0.7469438261930107  0.5618319765611868  0.09807035272405741  1.0000
  C   C257      1.0  0.43816804351686284  0.1851118452609728  0.0980703311335928  1.0000
  C   C258      1.0  0.8148882308192618  0.2530562292946103  0.09807020687884445  1.0000
  C   C259      1.0  0.4136104416570321  0.8951653066948557  0.4314038831957537  1.0000
  C   C260      1.0  0.10483476980494882  0.5184452192027121  0.4314037582949684  1.0000
  C   C261      1.0  0.4815548241256723  0.5863895474210739  0.43140368347330016  1.0000
  C   C262      1.0  0.9197631804672681  0.7715438408422851  0.23531004785465517  1.0000
  C   C263      1.0  0.22845610679169276  0.14821933089136466  0.23531002831378758  1.0000
  C   C264      1.0  0.8517806115910704  0.08023676602978592  0.23531008425165276  1.0000
  C   C265      1.0  0.5864298841663577  0.10487717468825503  0.5686435552592605  1.0000
  C   C266      1.0  0.8951227303598082  0.48155266657147505  0.5686432738490212  1.0000
  C   C267      1.0  0.5184473441843241  0.41357010403824496  0.5686433738266072  1.0000
  C   C268      1.0  0.25309651213008105  0.43821049659093936  0.9019767523671792  1.0000
  C   C269      1.0  0.5617895060595992  0.8148859999355859  0.9019767927058804  1.0000
  C   C270      1.0  0.18511402641973043  0.7469035230415791  0.9019769973050448  1.0000
  H   H163      1.0  0.05666238851466657  0.24969685095865268  0.7372036523872887  1.0000
  H   H164      1.0  0.7503031148058066  0.8069654893904706  0.7372036328628598  1.0000
  H   H165      1.0  0.19303448840870008  0.9433376038298293  0.7372036354709188  1.0000
  H   H166      1.0  0.7233290585002997  0.5830301792309047  0.07053704342269469  1.0000
  H   H167      1.0  0.41696980037210635  0.1402988479170321  0.07053700616778938  1.0000
  H   H168      1.0  0.859701132214694  0.2766709299165282  0.07053702687216631  1.0000
  H   H169      1.0  0.38999572839761915  0.916363527349039  0.40387030916620814  1.0000
  H   H170      1.0  0.08363645506407512  0.47363217925446494  0.40387029860331997  1.0000
  H   H171      1.0  0.5263678143722627  0.6100042710491125  0.40387029823246906  1.0000
  H   H172      1.0  0.9433929763811854  0.7503635751073342  0.26285570901960226  1.0000
  H   H173      1.0  0.24963640109638457  0.19302934902595223  0.2628556544671972  1.0000
  H   H174      1.0  0.8069706402883542  0.05660703965071222  0.2628556563627768  1.0000
  H   H175      1.0  0.6100596068636491  0.08369694730364938  0.5961889670946874  1.0000
  H   H176      1.0  0.9163030740520166  0.5263626946701018  0.5961890155159268  1.0000
  H   H177      1.0  0.47363728098508867  0.38994035192023613  0.5961890014764186  1.0000
  H   H178      1.0  0.2767263022806788  0.4170302825516541  0.9295222948192708  1.0000
  H   H179      1.0  0.5829697460445751  0.8596960511278684  0.9295223251986336  1.0000
  H   H180      1.0  0.1403039407499522  0.7232736966395429  0.9295223022863477  1.0000
  C   C271      1.0  0.2177175895492054  0.33437607957062343  0.6385106835152347  1.0000
  C   C272      1.0  0.6656239028089649  0.8833415067133845  0.638510724212523  1.0000
  C   C273      1.0  0.11665852684790612  0.7822824413482243  0.6385106572469007  1.0000
  C   C274      1.0  0.8843842555372947  0.6677094099924482  0.971844115079199  1.0000
  C   C275      1.0  0.33229056005950225  0.21667482339100672  0.9718439668176676  1.0000
  C   C276      1.0  0.78332515443724  0.115615718315665  0.9718440537612859  1.0000
  C   C277      1.0  0.5510509177529926  0.0010427474222537852  0.30517734311568806  1.0000
  C   C278      1.0  0.9989572182995133  0.5500081517388297  0.3051773248418261  1.0000
  C   C279      1.0  0.4499918378889659  0.4489490908242805  0.3051773608330221  1.0000
  C   C280      1.0  0.7823239680585131  0.665654762264081  0.361410810305073  1.0000
  C   C281      1.0  0.3343452300121887  0.11666920843691996  0.36141083589947093  1.0000
  C   C282      1.0  0.8833308091945945  0.21767605059789719  0.3614108199171584  1.0000
  C   C283      1.0  0.44899061521924577  0.9989881001478722  0.6947441028304988  1.0000
  C   C284      1.0  0.0010118828215344088  0.4500025485368775  0.6947441609896403  1.0000
  C   C285      1.0  0.5499974595199846  0.5510093420840049  0.6947441317736099  1.0000
  C   C286      1.0  0.11565733119162165  0.33232145261938983  0.028077465540020136  1.0000
  C   C287      1.0  0.6676785668377397  0.7833359000231884  0.028077562337546238  1.0000
  C   C288      1.0  0.21666409389340563  0.8843427000199735  0.028077460949746388  1.0000
  H   H181      1.0  0.24662964734594148  0.31697926171449925  0.6484570921561695  1.0000
  H   H182      1.0  0.6830207480603117  0.929650374723208  0.6484570547078312  1.0000
  H   H183      1.0  0.07034961542845132  0.753370338487932  0.6484571037092395  1.0000
  H   H184      1.0  0.9132962942967126  0.6503126227811628  0.981790373986381  1.0000
  H   H185      1.0  0.34968741508149  0.26298371923428226  0.9817904230024305  1.0000
  H   H186      1.0  0.7370163041203773  0.08670369425633451  0.9817903890731121  1.0000
  H   H187      1.0  0.5799629487486766  0.9836459114243297  0.3151237816782475  1.0000
  H   H188      1.0  0.016354082783068498  0.5963170818183622  0.3151237887199476  1.0000
  H   H189      1.0  0.40368296683568883  0.4200370425135714  0.315123783213233  1.0000
  H   H190      1.0  0.7534373851530175  0.6830764838836392  0.35138513769538465  1.0000
  H   H191      1.0  0.31692353506877646  0.07036092034218085  0.3513851771145721  1.0000
  H   H192      1.0  0.9296390607131492  0.24656257589854247  0.3513851537725108  1.0000
  H   H193      1.0  0.4201040814913793  0.016409816391402734  0.6847184774694263  1.0000
  H   H194      1.0  0.9835902243008894  0.40369427199975433  0.6847184890558963  1.0000
  H   H195      1.0  0.5963057367216327  0.5798959354103327  0.6847184756830882  1.0000
  H   H196      1.0  0.08677071341794025  0.3497431042883147  0.01805186017106865  1.0000
  H   H197      1.0  0.6502568939929873  0.7370276154851758  0.018051863479373306  1.0000
  H   H198      1.0  0.2629724270953019  0.9132292813722054  0.018051809011014216  1.0000
  H   H199      1.0  0.21732895794855592  0.3543836725593218  0.7255354123948468  1.0000
  H   H200      1.0  0.6456163208878591  0.8629452749275024  0.7255354076395176  1.0000
  H   H201      1.0  0.13705470067976516  0.7826710393561827  0.7255354542922368  1.0000
  H   H202      1.0  0.883995628044538  0.6877169957993033  0.05886872681064564  1.0000
  H   H203      1.0  0.3122829800182066  0.19627860907949654  0.05886876980374149  1.0000
  H   H204      1.0  0.8037213956838444  0.11600439022666574  0.058868795487691354  1.0000
  H   H205      1.0  0.5506622957366942  0.02105033266477811  0.39220204026109934  1.0000
  H   H206      1.0  0.9789496665807169  0.529611950612182  0.3922020897220279  1.0000
  H   H207      1.0  0.4703880416996497  0.44933771457169747  0.39220204864101404  1.0000
  H   H208      1.0  0.7827483481870215  0.6456473714177718  0.27441666925359437  1.0000
  H   H209      1.0  0.3543526377728405  0.137100976532717  0.274416721269274  1.0000
  H   H210      1.0  0.862899027478692  0.21725165063132088  0.2744166806098129  1.0000
  H   H211      1.0  0.4494150204177917  0.9789807259188824  0.6077500761568359  1.0000
  H   H212      1.0  0.021019311385598618  0.47043429177812807  0.6077500670822464  1.0000
  H   H213      1.0  0.5295657019620159  0.5505850136102204  0.6077501015840752  1.0000
  H   H214      1.0  0.11608164811973233  0.31231403359416277  0.9410834258687972  1.0000
  H   H215      1.0  0.6876859693275699  0.8037676267977598  0.9410833905545145  1.0000
  H   H216      1.0  0.19623237564662976  0.8839183237495024  0.9410834017959083  1.0000
  H   H217      1.0  0.23537357173419907  0.3677519483730257  0.5676409466104779  1.0000
  H   H218      1.0  0.6322480561587217  0.8676216196016252  0.5676409375516085  1.0000
  H   H219      1.0  0.13237837101288596  0.7646264313971094  0.5676409170342279  1.0000
  H   H220      1.0  0.902040258142775  0.7010852840140206  0.9009742682916903  1.0000
  H   H221      1.0  0.29891472532223295  0.20095495562333254  0.900974275308759  1.0000
  H   H222      1.0  0.7990450362680769  0.0979597647615221  0.9009742649581901  1.0000
  H   H223      1.0  0.5687069087318583  0.034418628346252395  0.23430766542115228  1.0000
  H   H224      1.0  0.9655813855324554  0.5342882797715673  0.2343076059272381  1.0000
  H   H225      1.0  0.4657117214989659  0.43129309765226453  0.23430761199988087  1.0000
  H   H226      1.0  0.7646347482323104  0.6322791028919627  0.43227511325440793  1.0000
  H   H227      1.0  0.3677209074063307  0.13235563665448294  0.432275063919998  1.0000
  H   H228      1.0  0.8676443538455071  0.23536523592708816  0.4322750621271868  1.0000
  H   H229      1.0  0.43130139823287245  0.9656124138719172  0.7656084474783262  1.0000
  H   H230      1.0  0.03438758729400756  0.4656889702002698  0.7656083371883599  1.0000
  H   H231      1.0  0.5343110218402243  0.5686985917127125  0.7656083581081178  1.0000
  H   H232      1.0  0.09796806411546932  0.2989457887042232  0.09894166183392071  1.0000
  H   H233      1.0  0.7010542216252107  0.7990222795852846  0.09894168035527842  1.0000
  H   H234      1.0  0.2009776867694108  0.9020319219680389  0.09894171181343533  1.0000
  C   C289      1.0  0.12652631513047885  0.2084238879386918  0.2846835369119726  1.0000
  C   C290      1.0  0.7915761327884286  0.9181024621428456  0.28468349063655796  1.0000
  C   C291      1.0  0.08189757180009351  0.8734737361822816  0.2846835180053565  1.0000
  C   C292      1.0  0.7931930107248791  0.5417572587686319  0.6180168210048815  1.0000
  C   C293      1.0  0.45824279902057663  0.2514357728446499  0.6180168090766972  1.0000
  C   C294      1.0  0.748564248968701  0.20680703757422758  0.6180168674351949  1.0000
  C   C295      1.0  0.459859678197229  0.8750905797016035  0.9513501575429764  1.0000
  C   C296      1.0  0.12490944630227813  0.5847690883301093  0.9513501682982952  1.0000
  C   C297      1.0  0.4152308811013556  0.5401403093901175  0.9513502066704288  1.0000
  C   C298      1.0  0.8734223968611589  0.791439776741331  0.71547652545611  1.0000
  C   C299      1.0  0.20856016537101557  0.08198259199313188  0.7154764906112138  1.0000
  C   C300      1.0  0.9180173908081604  0.1265775781672283  0.7154765372861753  1.0000
  C   C301      1.0  0.5400890903694446  0.1247731435978357  0.04880986023744522  1.0000
  C   C302      1.0  0.8752268280794148  0.4153159275340086  0.04880991881779889  1.0000
  C   C303      1.0  0.5846840644470562  0.4599109076200474  0.048809918578903676  1.0000
  C   C304      1.0  0.20675574735402258  0.45810647619011274  0.38214316974224405  1.0000
  C   C305      1.0  0.541893486464258  0.7486492310644718  0.3821431570641391  1.0000
  C   C306      1.0  0.25135073541569136  0.7932442399862749  0.3821431433244406  1.0000
  H   H235      1.0  0.14377801159642253  0.1797505746897548  0.3003934466981725  1.0000
  H   H236      1.0  0.8202494427926774  0.9640274474496978  0.30039349081467065  1.0000
  H   H237      1.0  0.035972586057303184  0.8562220136630889  0.3003934373965789  1.0000
  H   H238      1.0  0.8104446865755209  0.5130839161103998  0.6337267538282131  1.0000
  H   H239      1.0  0.48691610312375705  0.2973607846661785  0.6337267762908353  1.0000
  H   H240      1.0  0.702639238212669  0.18955533309989983  0.6337267857448007  1.0000
  H   H241      1.0  0.4771113301378031  0.8464171942221637  0.9670600949400209  1.0000
  H   H242      1.0  0.15358276778344057  0.6306941006590618  0.9670601281026368  1.0000
  H   H243      1.0  0.3693059032646835  0.5228886634557685  0.9670600736213757  1.0000
  H   H244      1.0  0.8562121784947763  0.8201543070100603  0.6998392648027166  1.0000
  H   H245      1.0  0.17984570376826378  0.036057848208229916  0.6998392474327654  1.0000
  H   H246      1.0  0.9639421691812373  0.14378786796263054  0.6998392625058745  1.0000
  H   H247      1.0  0.5228788156100944  0.1534876290294955  0.03317267103003709  1.0000
  H   H248      1.0  0.8465123779801205  0.3693911910789158  0.033172578689174365  1.0000
  H   H249      1.0  0.6306088421181416  0.4771212006083233  0.0331725810353159  1.0000
  H   H250      1.0  0.18954546940780032  0.48682096245376416  0.3665059529163381  1.0000
  H   H251      1.0  0.5131790565750431  0.7027245343383985  0.3665059534395076  1.0000
  H   H252      1.0  0.29727547642879987  0.8104545216703741  0.36650595689487825  1.0000
  H   H253      1.0  0.15891595198104178  0.24664045852099867  0.2364145715821843  1.0000
  H   H254      1.0  0.7533595307874766  0.9122754806124187  0.23641457237749303  1.0000
  H   H255      1.0  0.08772448798347925  0.8410840132821471  0.23641452875412308  1.0000
  H   H256      1.0  0.825582649978942  0.5799737983483595  0.5697479074151931  1.0000
  H   H257      1.0  0.42002620295878895  0.24560883022141272  0.569747910156743  1.0000
  H   H258      1.0  0.7543911839007089  0.17441737525829862  0.5697478974314808  1.0000
  H   H259      1.0  0.4922492928104309  0.9133071525712164  0.9030811998033065  1.0000
  H   H260      1.0  0.0866928773663664  0.5789421581133662  0.9030812247914821  1.0000
  H   H261      1.0  0.4210578323480986  0.5077507555159848  0.9030812532534805  1.0000
  H   H262      1.0  0.840984423011264  0.7532012809238203  0.7636034407895421  1.0000
  H   H263      1.0  0.24679870986801303  0.08778312934486276  0.7636034165353137  1.0000
  H   H264      1.0  0.9122168805593552  0.15901558552584766  0.7636033749477992  1.0000
  H   H265      1.0  0.5076510875187296  0.08653463420944295  0.0969367853664964  1.0000
  H   H266      1.0  0.9134654097551391  0.42111645243344925  0.09693675030540494  1.0000
  H   H267      1.0  0.5788835376833308  0.49234895514072635  0.0969367708150179  1.0000
  H   H268      1.0  0.1743177587322309  0.419867965508315  0.430270080116162  1.0000
  H   H269      1.0  0.5801320349280897  0.7544497918184939  0.4302701100147241  1.0000
  H   H270      1.0  0.2455502024629098  0.8256822607511184  0.43027012562878925  1.0000
  H   H271      1.0  0.08872458774027313  0.18582602946336643  0.22582691358714876  1.0000
  H   H272      1.0  0.8141739808097043  0.9028985537375707  0.2258269039173829  1.0000
  H   H273      1.0  0.09710141225673999  0.9112753902876352  0.22582697164327747  1.0000
  H   H274      1.0  0.7553912162818175  0.5191593290011636  0.5591602201778709  1.0000
  H   H275      1.0  0.4808406307112339  0.23623191028624801  0.55916027369589  1.0000
  H   H276      1.0  0.7637680950417263  0.2446087462970025  0.5591602518541872  1.0000
  H   H277      1.0  0.42205793096025984  0.8524926917294918  0.8924936124937511  1.0000
  H   H278      1.0  0.14750730850188312  0.5695652450188728  0.8924935849555402  1.0000
  H   H279      1.0  0.43043476708714024  0.5779420596396575  0.8924935416900399  1.0000
  H   H280      1.0  0.9112048329577082  0.8139707445442765  0.7744103376979444  1.0000
  H   H281      1.0  0.18602925180291432  0.09723411644413694  0.7744103853794188  1.0000
  H   H282      1.0  0.902765884402669  0.08879515472983193  0.774410317653181  1.0000
  H   H283      1.0  0.577871503838446  0.14730407630483092  0.10774370699981035  1.0000
  H   H284      1.0  0.8526959043612394  0.43056745991303047  0.10774368046143107  1.0000
  H   H285      1.0  0.5694325437092  0.4221284557790049  0.10774373239179623  1.0000
  H   H286      1.0  0.2445381729292368  0.48063740213989964  0.44107701805821836  1.0000
  H   H287      1.0  0.5193626290843023  0.7639007904277231  0.4410770123487381  1.0000
  H   H288      1.0  0.2360992323812925  0.7554618738635605  0.44107697463096934  1.0000
  C   C307      1.0  0.06368170067954791  0.17056803555320652  0.4699793214371019  1.0000
  C   C308      1.0  0.829431964663336  0.8931136502476693  0.46997925269435326  1.0000
  C   C309      1.0  0.1068863215717057  0.9363182882289809  0.4699793733396719  1.0000
  C   C310      1.0  0.7303483418619909  0.5039013770169168  0.803312638582357  1.0000
  C   C311      1.0  0.4960986041579949  0.22644698032277163  0.803312626325038  1.0000
  C   C312      1.0  0.7735530976033947  0.26965164757947513  0.8033126443219565  1.0000
  C   C313      1.0  0.3970150222660714  0.8372346955401679  0.13664601906905594  1.0000
  C   C314      1.0  0.16276530219153787  0.5597803341359558  0.13664598619137983  1.0000
  C   C315      1.0  0.4402196653525662  0.6029849659979584  0.13664604462836935  1.0000
  C   C316      1.0  0.9363684418117582  0.829376279834345  0.530275553158486  1.0000
  C   C317      1.0  0.1706237550635959  0.10699217702568056  0.5302755848309132  1.0000
  C   C318      1.0  0.8930078179597334  0.06363156035067892  0.5302755908140456  1.0000
  C   C319      1.0  0.6030350913171549  0.162709599275732  0.8636089157898937  1.0000
  C   C320      1.0  0.8372904254428755  0.4403255302176122  0.8636089589230107  1.0000
  C   C321      1.0  0.5596745196938681  0.3969649594373356  0.8636089638732807  1.0000
  C   C322      1.0  0.26970177087067726  0.49604293867988  0.19694227970177328  1.0000
  C   C323      1.0  0.5039570891452845  0.7736589141767138  0.19694224081779682  1.0000
  C   C324      1.0  0.2263411606526332  0.7302982117751068  0.1969422495288103  1.0000
  H   H289      1.0  0.08053393508877013  0.14317119056257227  0.5013627475439635  1.0000
  H   H290      1.0  0.8568287546661328  0.9373626978938608  0.5013627611577114  1.0000
  H   H291      1.0  0.06263727238035229  0.9194660867400722  0.5013627525923147  1.0000
  H   H292      1.0  0.7472006160646844  0.4765045709548991  0.8346960744748406  1.0000
  H   H293      1.0  0.5234954674484247  0.2706960712978017  0.8346961124561256  1.0000
  H   H294      1.0  0.7293039250719151  0.25279940776279675  0.83469609425301  1.0000
  H   H295      1.0  0.4138672924522235  0.809837912213916  0.16802938735309597  1.0000
  H   H296      1.0  0.19016209041909002  0.6040293514556327  0.16802940615216944  1.0000
  H   H297      1.0  0.39597057699787136  0.5861327168268069  0.16802943538632825  1.0000
  H   H298      1.0  0.9195308577483549  0.8567651543178552  0.4987620398040438  1.0000
  H   H299      1.0  0.14323483299430928  0.06276571931395966  0.4987619855992972  1.0000
  H   H300      1.0  0.9372343104249904  0.08046912835293586  0.49876198470485955  1.0000
  H   H301      1.0  0.586197531155173  0.19009851294647379  0.8320952830076315  1.0000
  H   H302      1.0  0.8099015097503866  0.3960990769628019  0.8320953200362029  1.0000
  H   H303      1.0  0.6039009195063137  0.4138024278459941  0.8320953172117822  1.0000
  H   H304      1.0  0.25286419032902185  0.5234318088448557  0.16542868281334575  1.0000
  H   H305      1.0  0.47656814665090785  0.7294323243055165  0.1654286635826967  1.0000
  H   H306      1.0  0.27056762606696794  0.7471357839457369  0.16542867573127862  1.0000
  H   H307      1.0  0.028576606699325453  0.14612255979470953  0.405372937422623  1.0000
  H   H308      1.0  0.8538774593270706  0.8824540666307749  0.4053729558677795  1.0000
  H   H309      1.0  0.1175459219852093  0.9714233453681965  0.40537298784963494  1.0000
  H   H310      1.0  0.6952433141437945  0.4794559128919319  0.7387062844380159  1.0000
  H   H311      1.0  0.520544091896066  0.2157874058743072  0.7387063134561003  1.0000
  H   H312      1.0  0.7842125889040942  0.3047567113741518  0.7387062598502346  1.0000
  H   H313      1.0  0.3619099171616911  0.8127891940445078  0.0720395677527697  1.0000
  H   H314      1.0  0.1872107853444579  0.549120727038213  0.0720395815128077  1.0000
  H   H315      1.0  0.45087928521937176  0.6380900711501927  0.07203956768727474  1.0000
  H   H316      1.0  0.9714404806423259  0.8538149540977602  0.5949555057204446  1.0000
  H   H317      1.0  0.1461850686781186  0.11762553030404721  0.5949554460774976  1.0000
  H   H318      1.0  0.8823744799695099  0.028559554516792297  0.5949555118817483  1.0000
  H   H319      1.0  0.6381071653826889  0.1871482906730588  0.928288807395791  1.0000
  H   H320      1.0  0.8128517563674357  0.450958854280294  0.9282887105984079  1.0000
  H   H321      1.0  0.5490411485998768  0.3618929057000639  0.9282887125557104  1.0000
  H   H322      1.0  0.3047737848237443  0.5204815956827197  0.261622161160824  1.0000
  H   H323      1.0  0.47951838879742575  0.78429219812472  0.2616221461206704  1.0000
  H   H324      1.0  0.21570782416317286  0.6952261843047998  0.26162220536953606  1.0000
  H   H325      1.0  0.046483874287357986  0.18147766376713811  0.5498285391481276  1.0000
  H   H326      1.0  0.8185223721548718  0.865006269639348  0.549828520514675  1.0000
  H   H327      1.0  0.1349937825810145  0.9535161395579669  0.5498285315667035  1.0000
  H   H328      1.0  0.7131505664790152  0.5148109911532731  0.8831618347576039  1.0000
  H   H329      1.0  0.4851890290487526  0.19833956717971962  0.8831618438077126  1.0000
  H   H330      1.0  0.8016604219941444  0.2868494446890632  0.8831618425873442  1.0000
  H   H331      1.0  0.37981720306433525  0.8481443238761774  0.2164952427834703  1.0000
  H   H332      1.0  0.15185567478377804  0.5316729009042905  0.2164952729973618  1.0000
  H   H333      1.0  0.4683271080432183  0.620182784252673  0.21649521891482879  1.0000
  H   H334      1.0  0.9536051660529425  0.8184664642211575  0.4504910466879277  1.0000
  H   H335      1.0  0.18153351546015173  0.1351386728697129  0.4504911067718114  1.0000
  H   H336      1.0  0.8648613362665989  0.04639485438038109  0.4504910262663069  1.0000
  H   H337      1.0  0.6202718073552123  0.15179979639228638  0.783824416033067  1.0000
  H   H338      1.0  0.8482001952846915  0.46847201248481496  0.7838244063593808  1.0000
  H   H339      1.0  0.531528002994123  0.379728164753152  0.7838243959471098  1.0000
  H   H340      1.0  0.2869384767857806  0.48513314548515096  0.11715775389507323  1.0000
  H   H341      1.0  0.51486687933826  0.8018053541937037  0.1171578070628291  1.0000
  H   H342      1.0  0.19819464909934623  0.7130615205592524  0.11715770356785574  1.0000
  O   O19       1.0  0.05964475332077936  0.11565520125013097  0.9803508867451621  1.0000
  O   O20       1.0  0.8843448215810716  0.9439895824925759  0.9803509056917656  1.0000
  O   O21       1.0  0.05601045857913967  0.9403552773822029  0.9803508927248734  1.0000
  O   O22       1.0  0.7263114359317053  0.4489885352513724  0.3136842178239699  1.0000
  O   O23       1.0  0.5510114783956976  0.27732285983578037  0.3136842508413928  1.0000
  O   O24       1.0  0.722677113308787  0.2736885791458432  0.3136842228423916  1.0000
  O   O25       1.0  0.39297808511213356  0.7823218377657173  0.6470176580421418  1.0000
  O   O26       1.0  0.21767817616970447  0.6106562701917269  0.647017616079574  1.0000
  O   O27       1.0  0.38934377776630646  0.6070219376016949  0.6470176164105895  1.0000
  O   O28       1.0  0.9403362643886569  0.8842746252852254  0.019411193515042308  1.0000
  O   O29       1.0  0.11572534261390417  0.05606162131161364  0.019411096278104046  1.0000
  O   O30       1.0  0.9439383527838202  0.05966369215206781  0.01941113600388095  1.0000
  O   O31       1.0  0.6070029713462854  0.21760799989091795  0.3527444224286503  1.0000
  O   O32       1.0  0.7823919911270252  0.3893949743194215  0.3527443882640138  1.0000
  O   O33       1.0  0.6106050485803488  0.39299705474567986  0.3527444268135042  1.0000
  O   O34       1.0  0.2736696369034617  0.5509413346014929  0.686077713857923  1.0000
  O   O35       1.0  0.4490586169391338  0.7227282317955703  0.6860776888681305  1.0000
  O   O36       1.0  0.27727168926734735  0.7263303665271547  0.6860777518240808  1.0000
  H   H343      1.0  0.08128229116439697  0.09497633577337203  0.9931217268649244  1.0000
  H   H344      1.0  0.905023661004539  0.9863059512775545  0.9931217193921231  1.0000
  H   H345      1.0  0.013694034228900127  0.9187176936447771  0.9931217089264142  1.0000
  H   H346      1.0  0.7479489492994511  0.42830966443449814  0.32645507155870074  1.0000
  H   H347      1.0  0.5716903562410104  0.31963933530564875  0.3264550885504584  1.0000
  H   H348      1.0  0.6803606864346261  0.2520510464143918  0.3264551228263719  1.0000
  H   H349      1.0  0.4146156114146447  0.7616429985692202  0.6597883820801845  1.0000
  H   H350      1.0  0.23835698899813257  0.6529725882592874  0.6597883922926457  1.0000
  H   H351      1.0  0.3470273650515534  0.5853843673046882  0.659788388636012  1.0000
  H   H352      1.0  0.9187445419622685  0.9050036842843994  0.00673022394717008  1.0000
  H   H353      1.0  0.09499634862479313  0.013740881564704367  0.0067302526349954095  1.0000
  H   H354      1.0  0.9862591334787076  0.08125546701883506  0.006730276568133653  1.0000
  H   H355      1.0  0.5854112006678899  0.23833698498778783  0.3400635970558682  1.0000
  H   H356      1.0  0.7616630188457152  0.34707423279931454  0.34006360547309666  1.0000
  H   H357      1.0  0.652925804977109  0.41458879272199173  0.340063555948073  1.0000
  H   H358      1.0  0.2520778761462076  0.5716703200015191  0.673396910660364  1.0000
  H   H359      1.0  0.42832969718528213  0.6804075891345842  0.6733969103158538  1.0000
  H   H360      1.0  0.319592457157365  0.7479221138768133  0.6733968950302137  1.0000
