data_image0
_chemical_formula_structural       O18C36H36C36H18C18H18C18H18C18H18C72H18C18H18C36H18C18H18C18H54C18H54C18H54O18H18
_chemical_formula_sum              "O36 C324 H360"
_cell_length_a       27.020652096736473
_cell_length_b       27.050177877692594
_cell_length_c       11.074554252503543
_cell_angle_alpha    90.0260231909211
_cell_angle_beta     89.8935114720098
_cell_angle_gamma    119.9205713189464

_space_group_name_H-M_alt    "P 1"
_space_group_IT_number       1

loop_
  _space_group_symop_operation_xyz
  'x, y, z'

loop_
  _atom_site_type_symbol
  _atom_site_label
  _atom_site_symmetry_multiplicity
  _atom_site_fract_x
  _atom_site_fract_y
  _atom_site_fract_z
  _atom_site_occupancy
  O   O1        1.0  0.08508334571475734  0.2575495137901202  0.3860649076796421  1.0000
  O   O2        1.0  0.7422971979484153  0.828604228357737  0.3839975719504231  1.0000
  O   O3        1.0  0.17162663865056074  0.9138371429704362  0.3830760082850009  1.0000
  O   O4        1.0  0.7517509410943995  0.5908837438067203  0.7193998304374293  1.0000
  O   O5        1.0  0.4089654866323446  0.16193755441695112  0.7173288166896894  1.0000
  O   O6        1.0  0.8382943763378172  0.24716964210589046  0.7164104267578173  1.0000
  O   O7        1.0  0.41841527476938395  0.9242159729933614  0.05273160075166089  1.0000
  O   O8        1.0  0.07563143962460457  0.4952704349304636  0.05066437727483939  1.0000
  O   O9        1.0  0.5049598532786103  0.5805027108988003  0.04974429779099007  1.0000
  O   O10       1.0  0.9145559647056841  0.7420368182070411  0.6132210990211979  1.0000
  O   O11       1.0  0.25763687933754453  0.17167255873968967  0.6158780723648973  1.0000
  O   O12       1.0  0.8281696098746693  0.08581488726023304  0.6165274343555984  1.0000
  O   O13       1.0  0.5812224732962024  0.07536995586660124  0.9465544461635316  1.0000
  O   O14       1.0  0.9243034849497505  0.5050068397218611  0.9492141006757456  1.0000
  O   O15       1.0  0.494835700332378  0.41914708548940327  0.9498594773533693  1.0000
  O   O16       1.0  0.24788861663061465  0.4087043033707166  0.2798883179529647  1.0000
  O   O17       1.0  0.5909699757651489  0.8383379953251746  0.282537846921844  1.0000
  O   O18       1.0  0.16150620683537753  0.7524856740904124  0.2831859023605332  1.0000
  C   C1        1.0  0.10913754113672366  0.22148128031056316  0.4159949693660283  1.0000
  C   C2        1.0  0.7785011469402867  0.888317293991044  0.41621854033205813  1.0000
  C   C3        1.0  0.11186201172922522  0.890291730372721  0.41582571076986335  1.0000
  C   C4        1.0  0.7758051939339804  0.5548162907887829  0.749330309974109  1.0000
  C   C5        1.0  0.44516694473279045  0.22165117901768444  0.7495527150082559  1.0000
  C   C6        1.0  0.7785302393998427  0.2236267086748725  0.7491596999822204  1.0000
  C   C7        1.0  0.44247019480204697  0.8881480884351469  0.0826590504575224  1.0000
  C   C8        1.0  0.11183491736327454  0.5549845524708757  0.08288463794617298  1.0000
  C   C9        1.0  0.44519566655276144  0.556958593355933  0.08249421458383205  1.0000
  C   C10       1.0  0.8905767827994988  0.7781617362639801  0.5832453170835521  1.0000
  C   C11       1.0  0.22164552740422624  0.11185681703592354  0.5842409867827278  1.0000
  C   C12       1.0  0.8880049922884313  0.10950642381997262  0.584170912236352  1.0000
  C   C13       1.0  0.5572423310153247  0.11149383051847389  0.9165786756048481  1.0000
  C   C14       1.0  0.888313583423492  0.44519130429162296  0.9175748273657146  1.0000
  C   C15       1.0  0.5546710654117326  0.44283911595678843  0.9175057923839609  1.0000
  C   C16       1.0  0.22390795062286423  0.44482778795028344  0.24991184201351702  1.0000
  C   C17       1.0  0.5549782639201501  0.778523089460429  0.25090539275131746  1.0000
  C   C18       1.0  0.2213394743661239  0.776173509829931  0.2508344348691969  1.0000
  C   C19       1.0  0.1631753654124972  0.25573606607171656  0.490062821500637  1.0000
  C   C20       1.0  0.7440392171262067  0.9075072002853952  0.4918718378616176  1.0000
  C   C21       1.0  0.09296294854321827  0.8368414743495227  0.49160892997045047  1.0000
  C   C22       1.0  0.8298429390593721  0.589071136502188  0.8234001078915772  1.0000
  C   C23       1.0  0.4107053348774264  0.24084097739816643  0.8252089695035846  1.0000
  C   C24       1.0  0.7596272077472236  0.17017339897558653  0.8249415207767121  1.0000
  C   C25       1.0  0.4965082312932871  0.9224013942625043  0.15672721399432185  1.0000
  C   C26       1.0  0.07737295355270955  0.5741742835961573  0.15853737888716174  1.0000
  C   C27       1.0  0.42629467620859135  0.5035069544635856  0.1582773102157763  1.0000
  C   C28       1.0  0.8365538157668293  0.7438626464237545  0.5091174919203947  1.0000
  C   C29       1.0  0.25628657313289527  0.09280044622307328  0.5088686451979731  1.0000
  C   C30       1.0  0.9070659174713985  0.16312898948684215  0.5089324559486164  1.0000
  C   C31       1.0  0.5032196170371569  0.07719586855995937  0.8424485185070025  1.0000
  C   C32       1.0  0.9229545744367743  0.42613381767326364  0.8422001449471784  1.0000
  C   C33       1.0  0.5737348077761674  0.49646311373583424  0.8422692297037722  1.0000
  C   C34       1.0  0.16988492453174675  0.41052847925053765  0.17578255717830293  1.0000
  C   C35       1.0  0.5896190609117448  0.7594657987863855  0.175537093760437  1.0000
  C   C36       1.0  0.24040153813043666  0.8297975789417837  0.1756027944020598  1.0000
  H   H1        1.0  0.1942739828613404  0.29081557072978087  0.431995620066855  1.0000
  H   H2        1.0  0.7088048021795511  0.9036276580800192  0.43456580278832546  1.0000
  H   H3        1.0  0.09701767699892773  0.8055752402003931  0.43422801692483093  1.0000
  H   H4        1.0  0.8609405281714366  0.6241493299903628  0.7653279963768088  1.0000
  H   H5        1.0  0.3754721712107936  0.23696113174986524  0.7678984326363889  1.0000
  H   H6        1.0  0.7636855414415252  0.1389085174583206  0.7675576274144098  1.0000
  H   H7        1.0  0.5276070839800465  0.9574832204187593  0.09866252619375783  1.0000
  H   H8        1.0  0.042137745374533374  0.5702950172772816  0.10123251131641692  1.0000
  H   H9        1.0  0.43035291585593494  0.4722429632411983  0.10089552294711557  1.0000
  H   H10       1.0  0.8055171540501194  0.708675915719708  0.5670280288637015  1.0000
  H   H11       1.0  0.2916639833666901  0.0970220010706071  0.5661627328497753  1.0000
  H   H12       1.0  0.903108635184922  0.19436799906833177  0.5665903639344407  1.0000
  H   H13       1.0  0.4721851999066564  0.04201040437955487  0.90035989290588  1.0000
  H   H14       1.0  0.9583311174674617  0.4303560677163004  0.8994969453857868  1.0000
  H   H15       1.0  0.5697740299892456  0.5277018114541664  0.8999213897261232  1.0000
  H   H16       1.0  0.1388512610334316  0.3753413958718688  0.23369627469305526  1.0000
  H   H17       1.0  0.6249983540142612  0.7636908061527565  0.2328289506215845  1.0000
  H   H18       1.0  0.23644068942294058  0.8610356692071048  0.23325850515877408  1.0000
  H   H19       1.0  0.18159188808340865  0.22825451131650998  0.510140429330545  1.0000
  H   H20       1.0  0.7713496302742665  0.9532363848778336  0.5129778408250795  1.0000
  H   H21       1.0  0.04717011564222112  0.8182948327706626  0.5130474022897419  1.0000
  H   H22       1.0  0.8482577487439333  0.5615885286074679  0.8434744624712971  1.0000
  H   H23       1.0  0.4380167486488867  0.286570681187828  0.8463113141909124  1.0000
  H   H24       1.0  0.7138327410943132  0.1516267090245244  0.8463821165039952  1.0000
  H   H25       1.0  0.5149263010748641  0.8949215283607664  0.1768103175630015  1.0000
  H   H26       1.0  0.10468267183071839  0.6199039767571624  0.17964498807685775  1.0000
  H   H27       1.0  0.3805003502554717  0.4849607564877256  0.1797144939439138  1.0000
  H   H28       1.0  0.817960784435574  0.7711914263403511  0.4891244013480154  1.0000
  H   H29       1.0  0.22917975292794165  0.047003479649779314  0.48821440503892016  1.0000
  H   H30       1.0  0.9528554145761872  0.18160595573802527  0.4874841056777636  1.0000
  H   H31       1.0  0.4846262073740028  0.10452493618653683  0.8224597128699991  1.0000
  H   H32       1.0  0.8958448849601299  0.3803363185569721  0.8215456420757337  1.0000
  H   H33       1.0  0.6195247424274557  0.5149409722902196  0.8208127762343539  1.0000
  H   H34       1.0  0.15129404678453434  0.43785925829198036  0.1557893085741543  1.0000
  H   H35       1.0  0.5625117264849124  0.7136692162211528  0.154879689846969  1.0000
  H   H36       1.0  0.2861900548808765  0.8482709467554319  0.15414941909393673  1.0000
  C   C37       1.0  0.15596240372665343  0.2822978764189594  0.6067582720958755  1.0000
  C   C38       1.0  0.717657982527153  0.8730964900985524  0.6079548856126383  1.0000
  C   C39       1.0  0.12752558001343672  0.8451455798937577  0.6074447814020889  1.0000
  C   C40       1.0  0.8226292267594945  0.6156298833800171  0.9400970074105195  1.0000
  C   C41       1.0  0.38432439064109986  0.2064298354550758  0.9412903455932494  1.0000
  C   C42       1.0  0.7941900098293306  0.17847754573533628  0.9407821012337911  1.0000
  C   C43       1.0  0.4892948861042917  0.9489614358981251  0.2734274490575905  1.0000
  C   C44       1.0  0.050992279607570565  0.5397622438583302  0.274620949938734  1.0000
  C   C45       1.0  0.4608604119524137  0.5118112167869091  0.2741087676129517  1.0000
  C   C46       1.0  0.8438908764965232  0.7174322061375685  0.3922976945038262  1.0000
  C   C47       1.0  0.28246799338751405  0.1270343466268148  0.3925028853697344  1.0000
  C   C48       1.0  0.8725974963798161  0.155163070702126  0.39306354932230125  1.0000
  C   C49       1.0  0.510555496970534  0.05076357941443677  0.7256339810267735  1.0000
  C   C50       1.0  0.9491373020942299  0.46036845229347617  0.7258379922977031  1.0000
  C   C51       1.0  0.5392640404329343  0.48849706265474435  0.7264029401165483  1.0000
  C   C52       1.0  0.17722357403731853  0.3840986490461733  0.05896556120956068  1.0000
  C   C53       1.0  0.6158008716074197  0.7936999779576559  0.05917326200473662  1.0000
  C   C54       1.0  0.2059303069285159  0.8218314967592228  0.05973742305550148  1.0000
  C   C55       1.0  0.11951161531848113  0.3508787395421508  0.6516635501935403  1.0000
  C   C56       1.0  0.6504094808728247  0.7678481466084156  0.6515764544662048  1.0000
  C   C57       1.0  0.23301386621615813  0.8833219164652694  0.649891902329288  1.0000
  C   C58       1.0  0.7861800255050837  0.6842114479831722  0.9849926147321888  1.0000
  C   C59       1.0  0.3170766883722689  0.10118270404346955  0.9849108625773932  1.0000
  C   C60       1.0  0.8996820518901605  0.21665507900914732  0.9832219282512181  1.0000
  C   C61       1.0  0.45284727254948887  0.017547094729199336  0.3183264548832192  1.0000
  C   C62       1.0  0.9837421125869413  0.4345142570403136  0.31824507158601606  1.0000
  C   C63       1.0  0.5663487730840476  0.5499888217042938  0.3165567444016026  1.0000
  C   C64       1.0  0.8803095284650243  0.6488144492310177  0.34744547041999607  1.0000
  C   C65       1.0  0.3499188041767124  0.2322686367747685  0.3488341789524456  1.0000
  C   C66       1.0  0.7671721123156521  0.11708897978811639  0.3501159605462149  1.0000
  C   C67       1.0  0.5469765485601663  0.9821481711645359  0.6807794418123905  1.0000
  C   C68       1.0  0.01658474658153997  0.5656024638043712  0.6821639228725473  1.0000
  C   C69       1.0  0.43383775594005186  0.45042138297689255  0.683447886680344  1.0000
  C   C70       1.0  0.2136438664035451  0.31548274488329714  0.014112765292598096  1.0000
  C   C71       1.0  0.68325191628466  0.8989348559885476  0.015501088843516005  1.0000
  C   C72       1.0  0.10050487090076694  0.783755459736387  0.01678579964175695  1.0000
  H   H37       1.0  0.14549100490096226  0.3634454697907335  0.7339123775556584  1.0000
  H   H38       1.0  0.6380460518829358  0.7806783318269949  0.7350912881344912  1.0000
  H   H39       1.0  0.2203685045091615  0.8582853481264681  0.7335274771842402  1.0000
  H   H40       1.0  0.812156692070656  0.6967784291269167  0.06724279265926683  1.0000
  H   H41       1.0  0.30471283034837326  0.11401188970947798  0.06842756918597573  1.0000
  H   H42       1.0  0.8870347210879742  0.19162017184961963  0.06685763090749643  1.0000
  H   H43       1.0  0.4788233713279125  0.03011158779691512  0.4005793554216415  1.0000
  H   H44       1.0  0.9713793761771834  0.4473452790417076  0.40176084654595573  1.0000
  H   H45       1.0  0.5537016390114656  0.5249530185690346  0.4001921971254833  1.0000
  H   H46       1.0  0.8542906879055584  0.636217987637118  0.2652493969253709  1.0000
  H   H47       1.0  0.36240586251447104  0.21944037905835767  0.2654743438076673  1.0000
  H   H48       1.0  0.7799254758993196  0.14241590908225726  0.2668792132280169  1.0000
  H   H49       1.0  0.5209584277136591  0.9695514017309073  0.5985833317746365  1.0000
  H   H50       1.0  0.029073569440696227  0.5527744648867212  0.598805311627688  1.0000
  H   H51       1.0  0.4465923009232528  0.4757498114907453  0.6002128650311326  1.0000
  H   H52       1.0  0.18762547930842605  0.3028845271068339  0.9319165665575744  1.0000
  H   H53       1.0  0.6957391331006789  0.8861074528087676  0.9321413734793653  1.0000
  H   H54       1.0  0.11325860290084523  0.8090806299907671  0.9335500397460342  1.0000
  C   C73       1.0  0.08780824462825268  0.3771118049442142  0.6249626317538656  1.0000
  C   C74       1.0  0.624497476652126  0.7101785153302799  0.6233944459556705  1.0000
  C   C75       1.0  0.29070968283419557  0.9151974468272922  0.6211879552108713  1.0000
  C   C76       1.0  0.7544757336678867  0.7104450474937297  0.958300315591273  1.0000
  C   C77       1.0  0.2911650189653917  0.04351232731534551  0.9567296679538111  1.0000
  C   C78       1.0  0.9573778569931998  0.2485308665091819  0.9545197435280113  1.0000
  C   C79       1.0  0.421139222399101  0.04377733021640621  0.29163479366149436  1.0000
  C   C80       1.0  0.957831504755161  0.37684486241172094  0.29006121740761515  1.0000
  C   C81       1.0  0.6240439706843376  0.5818638924110456  0.2878522242998925  1.0000
  C   C82       1.0  0.9119543521443936  0.6225245209922411  0.37425695910804724  1.0000
  C   C83       1.0  0.37582390665923027  0.289957336449256  0.3769082241804375  1.0000
  C   C84       1.0  0.709425233840938  0.08497819307390556  0.3782139663853145  1.0000
  C   C85       1.0  0.5786201660038061  0.9558566602171854  0.7075910373021469  1.0000
  C   C86       1.0  0.042490657891531856  0.623290214392423  0.7102438134991881  1.0000
  C   C87       1.0  0.3760909884125938  0.4183111290120628  0.7115459546812598  1.0000
  C   C88       1.0  0.24528501059612823  0.2891889043347847  0.0409237409818829  1.0000
  C   C89       1.0  0.7091576173644379  0.9566238376945481  0.04357319544210556  1.0000
  C   C90       1.0  0.0427576535565585  0.751646664297719  0.04488190907106433  1.0000
  H   H55       1.0  0.08884449355414406  0.40938761041884403  0.6860814563564814  1.0000
  H   H56       1.0  0.5925813203756942  0.6785065492261739  0.6844645865723634  1.0000
  H   H57       1.0  0.32258132557020475  0.9152829989586022  0.6820632800746154  1.0000
  H   H58       1.0  0.7555110373595091  0.7427224560937344  0.019418330611027684  1.0000
  H   H59       1.0  0.25924825881564456  0.011839735556095953  0.017795865759795935  1.0000
  H   H60       1.0  0.9892487065842593  0.248616365842598  0.015400940982734423  1.0000
  H   H61       1.0  0.42217786534017554  0.07605678678144387  0.3527506346700844  1.0000
  H   H62       1.0  0.9259151223917432  0.34517368149547856  0.3511279915428538  1.0000
  H   H63       1.0  0.6559143821467882  0.5819500451643655  0.3487308152154254  1.0000
  H   H64       1.0  0.9108226726181137  0.5901313605537641  0.3133627507850519  1.0000
  H   H65       1.0  0.407758328253671  0.32159627183617756  0.3158155147324342  1.0000
  H   H66       1.0  0.6776471008242897  0.08505725316971433  0.31729542056643656  1.0000
  H   H67       1.0  0.577489689544188  0.9234643319467585  0.6466938810742051  1.0000
  H   H68       1.0  0.07442519842691461  0.6549288219896544  0.649149948059473  1.0000
  H   H69       1.0  0.344312727950366  0.41839051155625595  0.6506256909781873  1.0000
  H   H70       1.0  0.24415721547763833  0.25679763582146264  0.9800271206322473  1.0000
  H   H71       1.0  0.7410925262683978  0.988263696517513  0.9824803951919828  1.0000
  H   H72       1.0  0.010979127801788802  0.751723227508259  0.9839578216123254  1.0000
  C   C91       1.0  0.055520343751323614  0.362251493146508  0.5191926410539652  1.0000
  C   C92       1.0  0.6390439893482172  0.6935328817930418  0.515899931741712  1.0000
  C   C93       1.0  0.30717008349802843  0.9462799303756321  0.5136615323197691  1.0000
  C   C94       1.0  0.722189735101037  0.6955868089381826  0.8525257982958011  1.0000
  C   C95       1.0  0.30571025709770866  0.026866318247404604  0.8492335908486963  1.0000
  C   C96       1.0  0.9738358045905299  0.2796113665524967  0.8469915713924144  1.0000
  C   C97       1.0  0.38885454219571575  0.028919071798049742  0.18585868386699214  1.0000
  C   C98       1.0  0.9723776897587453  0.36019936389012597  0.18256754872919023  1.0000
  C   C99       1.0  0.640502442700754  0.6129460896244783  0.18032704535400657  1.0000
  C   C100      1.0  0.9443126636305234  0.6374530625295474  0.4799529087553261  1.0000
  C   C101      1.0  0.36120775250186354  0.3066573391237477  0.4842266024880384  1.0000
  C   C102      1.0  0.6928051820798907  0.05345455246033549  0.485170051149831  1.0000
  C   C103      1.0  0.6109780439682845  0.9707853500341135  0.8132871451675456  1.0000
  C   C104      1.0  0.027871800225918068  0.6399902847424447  0.8175580705259631  1.0000
  C   C105      1.0  0.3594726726370769  0.3867882969551224  0.818503679322956  1.0000
  C   C106      1.0  0.27764571256932674  0.30411906563648516  0.1466168290681311  1.0000
  C   C107      1.0  0.6945412485340159  0.9733246864486279  0.15089171276936425  1.0000
  C   C108      1.0  0.02614031447189649  0.7201213920627528  0.15183510834772151  1.0000
  H   H73       1.0  0.03043939056049586  0.38248346585731274  0.49538836936017133  1.0000
  H   H74       1.0  0.6190442305216755  0.6484545418795795  0.49078196621704606  1.0000
  H   H75       1.0  0.3522748845549811  0.9715039828893604  0.48820465497905535  1.0000
  H   H76       1.0  0.6971061243328408  0.7158168836127531  0.8287235312201131  1.0000
  H   H77       1.0  0.2857113761261441  0.9817879777135426  0.8241116797364687  1.0000
  H   H78       1.0  0.018939741407993958  0.30483662058152106  0.82153850423519  1.0000
  H   H79       1.0  0.3637726931094063  0.049150741374062  0.16205548649392718  1.0000
  H   H80       1.0  0.9523784372750085  0.31512174731870657  0.15744617875705133  1.0000
  H   H81       1.0  0.6856061082100647  0.6381698005997674  0.15487091536339703  1.0000
  H   H82       1.0  0.9693907223897325  0.6172244411706749  0.5038519589037597  1.0000
  H   H83       1.0  0.38121585713194006  0.3517431284404631  0.5093023060862604  1.0000
  H   H84       1.0  0.6476677170362131  0.02800644984081814  0.5101651814078655  1.0000
  H   H85       1.0  0.6360582657866504  0.9505584262575881  0.8371848607870516  1.0000
  H   H86       1.0  0.04788344100896218  0.6850759843282613  0.8426353920518345  1.0000
  H   H87       1.0  0.31433548231345004  0.36134013231159384  0.8434957196050903  1.0000
  H   H88       1.0  0.30272493449505505  0.2838918483889804  0.17052010503542864  1.0000
  H   H89       1.0  0.7145494505577334  0.01841019437112924  0.17596841740111002  1.0000
  H   H90       1.0  0.9810029791166414  0.6946753501192234  0.1768271937721838  1.0000
  C   C109      1.0  0.0555324024147291  0.32183101321391183  0.4421258831116885  1.0000
  C   C110      1.0  0.6788823516584211  0.7344780825568665  0.43873491796181313  1.0000
  C   C111      1.0  0.2659977841189951  0.9448793309716104  0.43687043902789385  1.0000
  C   C112      1.0  0.7221977007658816  0.6551629657220335  0.7754614585114167  1.0000
  C   C113      1.0  0.3455497357424268  0.06781062943528084  0.772069969144872  1.0000
  C   C114      1.0  0.9326638199695236  0.278213636262868  0.7702020264575961  1.0000
  C   C115      1.0  0.38886360475978354  0.9884961582953551  0.10879440029643797  1.0000
  C   C116      1.0  0.012215375866397562  0.40114376997762163  0.1054031803300767  1.0000
  C   C117      1.0  0.5993309796918266  0.611545240404968  0.10353401244162616  1.0000
  C   C118      1.0  0.944338562423531  0.6779316852561577  0.5569189082707686  1.0000
  C   C119      1.0  0.32130858225487463  0.26574008511392005  0.5613322089986267  1.0000
  C   C120      1.0  0.7338801449935488  0.05469999832252939  0.56202856602169  1.0000
  C   C121      1.0  0.6110049258878762  0.011265183140284851  0.890250904768413  1.0000
  C   C122      1.0  0.9879782769469043  0.5990718928182172  0.8946711621374542  1.0000
  C   C123      1.0  0.4005476701067244  0.3880361192845362  0.89536490089843  1.0000
  C   C124      1.0  0.27767078863193034  0.3445971175774801  0.22358559398355218  1.0000
  C   C125      1.0  0.6546432580347782  0.9324062931727016  0.2279998614042286  1.0000
  C   C126      1.0  0.06721355710617458  0.7213658387758509  0.2286976341108581  1.0000
  H   H91       1.0  0.03110489547080124  0.3102972794963427  0.35789659746239844  1.0000
  H   H92       1.0  0.6900822292171889  0.7222334284181031  0.35308874879273333  1.0000
  H   H93       1.0  0.27812087171924743  0.9682446961632633  0.3511967200479393  1.0000
  H   H94       1.0  0.6977709577249775  0.6436306889557805  0.6912268855183938  1.0000
  H   H95       1.0  0.35674924487119003  0.05556791612776605  0.6864204201679965  1.0000
  H   H96       1.0  0.9447878692699175  0.30157845069300493  0.684526421382618  1.0000
  H   H97       1.0  0.3644378402786408  0.9769644585421854  0.024559574556865697  1.0000
  H   H98       1.0  0.023415273983083493  0.38890062271432574  0.019757247151297258  1.0000
  H   H99       1.0  0.6114531727497909  0.634911727754483  0.017863030951512992  1.0000
  H   H100      1.0  0.9687240282681842  0.6894708433599661  0.6411978056158325  1.0000
  H   H101      1.0  0.3100880548004618  0.27801461697660845  0.6469244297441852  1.0000
  H   H102      1.0  0.7216702808453024  0.03101167854363296  0.6472924032200603  1.0000
  H   H103      1.0  0.6353896407996344  0.022803416707806234  0.9745300997983837  1.0000
  H   H104      1.0  0.9767540964378255  0.6113481906747122  0.9802560153708741  1.0000
  H   H105      1.0  0.38833709221475576  0.36434369428219643  0.9806233293161546  1.0000
  H   H106      1.0  0.3020569460769686  0.35613791831651326  0.30786380059930823  1.0000
  H   H107      1.0  0.6434205184684479  0.9446811071536408  0.3135902287730497  1.0000
  H   H108      1.0  0.05500305666822078  0.6976780352600497  0.313963189364631  1.0000
  C   C127      1.0  0.08738223096923378  0.29522896675879085  0.4699555304790273  1.0000
  C   C128      1.0  0.7051901071121792  0.7926555081806911  0.46809766724755014  1.0000
  C   C129      1.0  0.20778723519057102  0.9129060492071478  0.46677032995938483  1.0000
  C   C130      1.0  0.7540507438180705  0.6285632415022722  0.803289201136717  1.0000
  C   C131      1.0  0.37185687333652356  0.12598853046021438  0.8014274665497466  1.0000
  C   C132      1.0  0.874454011927095  0.24623967152711465  0.800108140181251  1.0000
  C   C133      1.0  0.42071888288493176  0.9618986275923566  0.13662013078948723  1.0000
  C   C134      1.0  0.038522192817251576  0.45932088544209665  0.1347619525457856  1.0000
  C   C135      1.0  0.5411214138321159  0.5795733964246539  0.1334369776330212  1.0000
  C   C136      1.0  0.9124022035190518  0.7044627373694575  0.5291830171244413  1.0000
  C   C137      1.0  0.29492334790725294  0.20755297614352755  0.5319802024657698  1.0000
  C   C138      1.0  0.7921418657424337  0.08696006074895649  0.5327732640902125  1.0000
  C   C139      1.0  0.5790709518781855  0.03779841851171803  0.8625130636026365  1.0000
  C   C140      1.0  0.9615884634405125  0.5408858917840061  0.865311456752087  1.0000
  C   C141      1.0  0.45880850441731724  0.4202934816403952  0.8661058832703791  1.0000
  C   C142      1.0  0.24573911005976096  0.3711330081377256  0.195848747800083  1.0000
  C   C143      1.0  0.6282567934821082  0.8742196261403817  0.19864341452306744  1.0000
  C   C144      1.0  0.1254751274639887  0.7536242398671056  0.19943590756089563  1.0000
  C   C145      1.0  0.11997780985336025  0.3094231987228679  0.5764701530094318  1.0000
  C   C146      1.0  0.6912558715673238  0.8102705629580067  0.576244869349248  1.0000
  C   C147      1.0  0.19035533201900837  0.8815181149250709  0.5750559969277388  1.0000
  C   C148      1.0  0.786646705473766  0.6427555471812519  0.9098035794552148  1.0000
  C   C149      1.0  0.357920248310818  0.14360396979714257  0.909572760930511  1.0000
  C   C150      1.0  0.8570212892654846  0.2148508775560934  0.9083923624180315  1.0000
  C   C151      1.0  0.45331084658217224  0.9760878648767584  0.2431399706634317  1.0000
  C   C152      1.0  0.02458677494494336  0.4769353941390749  0.24290827033616397  1.0000
  C   C153      1.0  0.5236909699869793  0.5481857303171381  0.24172122578011754  1.0000
  C   C154      1.0  0.8798727152585486  0.6903037471832127  0.4225849529963497  1.0000
  C   C155      1.0  0.308972446920774  0.18987581551947877  0.42403724717544566  1.0000
  C   C156      1.0  0.8097249888736197  0.11876067936849125  0.4250462960276123  1.0000
  C   C157      1.0  0.5465402377317424  0.023638074935583512  0.7559178785118865  1.0000
  C   C158      1.0  0.9756403656291242  0.5232090234557921  0.7573710780450675  1.0000
  C   C159      1.0  0.47639095356251593  0.45209221895529716  0.7583775576171334  1.0000
  C   C160      1.0  0.21320477226174414  0.3569697715256472  0.08925704597658853  1.0000
  C   C161      1.0  0.6423052887655024  0.8565414532738437  0.0907030496087465  1.0000
  C   C162      1.0  0.1430571830164517  0.7854271801967658  0.09171523171455596  1.0000
  C   C163      1.0  0.1299996617413911  0.2381767205804742  0.708711548806833  1.0000
  C   C164      1.0  0.7618169160173179  0.8913751622706595  0.7096753054754223  1.0000
  C   C165      1.0  0.10917897446576837  0.8710482603209979  0.709291845646143  1.0000
  C   C166      1.0  0.796662266445952  0.5715065583884925  0.04204406713663151  1.0000
  C   C167      1.0  0.4284837183404511  0.22470948577238287  0.04301153279496181  1.0000
  C   C168      1.0  0.7758441857365026  0.20438259559761843  0.04262913267076467  1.0000
  C   C169      1.0  0.4633324028967431  0.9048422013111156  0.3753838199086618  1.0000
  C   C170      1.0  0.09515058960370576  0.5580422702832061  0.3763448652605298  1.0000
  C   C171      1.0  0.4425125372554799  0.5377133737935804  0.3759553137352944  1.0000
  C   C172      1.0  0.8698873109564426  0.7616477942172906  0.2905194336249954  1.0000
  C   C173      1.0  0.23820926788546437  0.10870675218735977  0.29095763377917966  1.0000
  C   C174      1.0  0.8909162214410464  0.1293751874875483  0.29085015822304894  1.0000
  C   C175      1.0  0.5365512725856231  0.09497936556117642  0.6238597603068724  1.0000
  C   C176      1.0  0.9048759725277268  0.44204051610801404  0.624299741527423  1.0000
  C   C177      1.0  0.5575823105968619  0.46271146624453363  0.6241861470193761  1.0000
  C   C178      1.0  0.20321901066356246  0.42831356685425814  0.9571877185505681  1.0000
  C   C179      1.0  0.5715433399557863  0.7753736812352972  0.9576279736135994  1.0000
  C   C180      1.0  0.2242485707174613  0.7960438779304182  0.9575214731745558  1.0000
  C   C181      1.0  0.1570198547500981  0.20804593117288903  0.7461708210641039  1.0000
  C   C182      1.0  0.7914204795802565  0.948387667081685  0.7475548470757356  1.0000
  C   C183      1.0  0.05208546051462285  0.8437258469975493  0.7474163700740847  1.0000
  C   C184      1.0  0.8236887980332733  0.541382778568683  0.07950856647089041  1.0000
  C   C185      1.0  0.4580885870104625  0.2817216113250529  0.08088978601988477  1.0000
  C   C186      1.0  0.7187502863386248  0.17705926515225365  0.08075082052436795  1.0000
  C   C187      1.0  0.4903529449542472  0.874712111747635  0.41283773457646605  1.0000
  C   C188      1.0  0.12475457933150716  0.6150546637576866  0.41422413116667217  1.0000
  C   C189      1.0  0.3854187237450827  0.5103933786685058  0.4140798566693456  1.0000
  C   C190      1.0  0.8429325540964298  0.7919079956175902  0.2535614222241317  1.0000
  C   C191      1.0  0.20850066103778706  0.051669298453386775  0.25326637925378853  1.0000
  C   C192      1.0  0.9479593227297941  0.1568125194235288  0.25239690610552123  1.0000
  C   C193      1.0  0.5095994936287228  0.12524068217533887  0.5868916324378036  1.0000
  C   C194      1.0  0.8751677072644989  0.3850034003136856  0.5866039436446037  1.0000
  C   C195      1.0  0.6146255054235704  0.4901476426816628  0.5857287773138279  1.0000
  C   C196      1.0  0.17626406611114348  0.4585721480102145  0.9202189461030981  1.0000
  C   C197      1.0  0.5418354010818636  0.7183366097465369  0.9199332726591437  1.0000
  C   C198      1.0  0.2812925658642651  0.8234803935117514  0.919065606033712  1.0000
  H   H109      1.0  0.19696704734655823  0.21589150742515517  0.7035537626722989  1.0000
  H   H110      1.0  0.7831384016110119  0.9802080848050089  0.7053301505950889  1.0000
  H   H111      1.0  0.020282961421194134  0.8036924341017404  0.7051654619640874  1.0000
  H   H112      1.0  0.8636342054134747  0.5492255082067192  0.03688609530584645  1.0000
  H   H113      1.0  0.4498032747672866  0.31353846541362146  0.03866526957589111  1.0000
  H   H114      1.0  0.6869496797949419  0.13702533694236893  0.03849808507994367  1.0000
  H   H115      1.0  0.5302995287784568  0.8825582188847009  0.37021832323868764  1.0000
  H   H116      1.0  0.11647097941996835  0.6468722924243399  0.37199671065963064  1.0000
  H   H117      1.0  0.3536171983039824  0.4703596401128431  0.3718307481249833  1.0000
  H   H118      1.0  0.8030351038383433  0.7840378145153143  0.2964777595382445  1.0000
  H   H119      1.0  0.2167343633866694  0.019833138432558937  0.2956039979823935  1.0000
  H   H120      1.0  0.9797591071709809  0.19691408786348516  0.2944080145144757  1.0000
  H   H121      1.0  0.46970359576395443  0.11737247173297084  0.6298076019761968  1.0000
  H   H122      1.0  0.8834009560570355  0.35316597457439836  0.6289358061950808  1.0000
  H   H123      1.0  0.6464274465611539  0.5302476610858234  0.6277421478542096  1.0000
  H   H124      1.0  0.13637049236206414  0.4507060431799312  0.9631451257058575  1.0000
  H   H125      1.0  0.5500675774865007  0.6864990561414201  0.9622683895406035  1.0000
  H   H126      1.0  0.3130949723466335  0.8635830866401971  0.9610749763963092  1.0000
  C   C199      1.0  0.13395236360533916  0.1665929055071201  0.8361887633801556  1.0000
  C   C200      1.0  0.8328996333271613  0.9670606444787897  0.8374077521637422  1.0000
  C   C201      1.0  0.033364795334130865  0.8664967031178166  0.8375631418602674  1.0000
  C   C202      1.0  0.8006194218033179  0.4999267599023002  0.16951941382440902  1.0000
  C   C203      1.0  0.49956625713353264  0.3003938935494452  0.17074454752232227  1.0000
  C   C204      1.0  0.700030726384002  0.1998313969752327  0.17089607596046263  1.0000
  C   C205      1.0  0.4672851393409261  0.833259472494124  0.5028539799395189  1.0000
  C   C206      1.0  0.16623146931652913  0.6337262088836357  0.5040798794352503  1.0000
  C   C207      1.0  0.36669769046410944  0.5331620671732631  0.5042333766441726  1.0000
  C   C208      1.0  0.8660106248116817  0.8335089504638076  0.16384844905665946  1.0000
  C   C209      1.0  0.1669741228836557  0.0330152963414897  0.1634860069308849  1.0000
  C   C210      1.0  0.96665730594144  0.13402385287658547  0.16225677665992577  1.0000
  C   C211      1.0  0.532676514598439  0.16684268022472168  0.49717893191325185  1.0000
  C   C212      1.0  0.8336408924111094  0.3663480269659698  0.49682150896683364  1.0000
  C   C213      1.0  0.6333253406059847  0.4673582726350934  0.4955907284748145  1.0000
  C   C214      1.0  0.19934233206707114  0.5001736061140132  0.8305084787094252  1.0000
  C   C215      1.0  0.5003067215816288  0.6996815973067795  0.8301569159011782  1.0000
  C   C216      1.0  0.2999921003957845  0.8006918082498282  0.8289224583458745  1.0000
  H   H127      1.0  0.1559170642440017  0.1435139048653738  0.8628108471859028  1.0000
  H   H128      1.0  0.8555845177594842  0.012016760450635903  0.8642011292764586  1.0000
  H   H129      1.0  0.9883495932234327  0.8444028985482301  0.8645351006950608  1.0000
  H   H130      1.0  0.822583170425199  0.4768473470544195  0.19614210798356713  1.0000
  H   H131      1.0  0.5222521544711705  0.34535068593814344  0.19753152739841429  1.0000
  H   H132      1.0  0.6550159606435169  0.1777357687179201  0.19786823715055987  1.0000
  H   H133      1.0  0.489249659404069  0.8101817931007992  0.5294768453703508  1.0000
  H   H134      1.0  0.1889181462859327  0.678683068698636  0.5308642698375171  1.0000
  H   H135      1.0  0.3216803174284111  0.511068517848704  0.531200479629054  1.0000
  H   H136      1.0  0.844173186899496  0.8567793229561046  0.13771130250162716  1.0000
  H   H137      1.0  0.14424500345442084  0.9880477740039454  0.13670838273549393  1.0000
  H   H138      1.0  0.01162586951834005  0.15631870460717545  0.13494167583453223  1.0000
  H   H139      1.0  0.5108392622816925  0.19011546012044  0.47104257950657774  1.0000
  H   H140      1.0  0.8109108423822884  0.3213791507460995  0.47004083258015145  1.0000
  H   H141      1.0  0.6782952585095439  0.4896529837489202  0.4682720981702609  1.0000
  H   H142      1.0  0.1775074600779802  0.5234485647522245  0.8043821343109004  1.0000
  H   H143      1.0  0.4775789314322032  0.6547140820250593  0.8033714113456152  1.0000
  H   H144      1.0  0.3449625982872381  0.8229860227985529  0.8016047886332975  1.0000
  C   C217      1.0  0.08249563117753926  0.1538587757598786  0.8916961939586225  1.0000
  C   C218      1.0  0.8461444661861068  0.9286769122318602  0.892432184701527  1.0000
  C   C219      1.0  0.07178688083546009  0.9179834706858315  0.8926558270062658  1.0000
  C   C220      1.0  0.7491656200662826  0.48719425582135084  0.22503619085369314  1.0000
  C   C221      1.0  0.5128105020462727  0.26200969604881047  0.22576410649822795  1.0000
  C   C222      1.0  0.7384540425699685  0.25131689283235525  0.22599060902564308  1.0000
  C   C223      1.0  0.41582984138295076  0.8205264666558792  0.558362694528102  1.0000
  C   C224      1.0  0.17947890337658204  0.5953434886615108  0.5590933654570981  1.0000
  C   C225      1.0  0.40512128010271276  0.5846515613766226  0.5593201482601673  1.0000
  C   C226      1.0  0.9174636768279777  0.8462747672552463  0.1082680095962646  1.0000
  C   C227      1.0  0.15371513575910023  0.07139886829862212  0.1085184804335015  1.0000
  C   C228      1.0  0.9283031686291888  0.08236671520135619  0.10763830877477863  1.0000
  C   C229      1.0  0.5841314293349027  0.17960706067688867  0.4416043286937458  1.0000
  C   C230      1.0  0.820381941414427  0.40473249735662903  0.4418534478936943  1.0000
  C   C231      1.0  0.594969163042801  0.4157001879451986  0.4409727575819218  1.0000
  C   C232      1.0  0.2507974924506367  0.5129401385124484  0.7749373526254549  1.0000
  C   C233      1.0  0.4870494158411913  0.738065973552709  0.7751859577551035  1.0000
  C   C234      1.0  0.26163576443962405  0.7490323708666594  0.774305009677758  1.0000
  C   C235      1.0  0.05544097112917526  0.18405225722090582  0.8577595334499303  1.0000
  C   C236      1.0  0.8165608134267196  0.8715752777615177  0.8579620061458346  1.0000
  C   C237      1.0  0.12896978835512765  0.9453627716486784  0.8580758719846847  1.0000
  C   C238      1.0  0.7221073750813568  0.5173834325918771  0.19109343659086753  1.0000
  C   C239      1.0  0.48322914351602375  0.20490808145297323  0.1912918056027352  1.0000
  C   C240      1.0  0.7956367645821775  0.2786981845786209  0.19140938712513425  1.0000
  C   C241      1.0  0.38877344992033236  0.8507178034487716  0.5244270022184881  1.0000
  C   C242      1.0  0.1498948745794164  0.5382412722246162  0.5246265196631656  1.0000
  C   C243      1.0  0.46230504360451513  0.6120300560858862  0.5247434076229307  1.0000
  C   C244      1.0  0.94449840177682  0.8160209437343519  0.14181874253415985  1.0000
  C   C245      1.0  0.1834447665545021  0.12852118005778318  0.142768867961437  1.0000
  C   C246      1.0  0.8711535254683408  0.05487577226661309  0.14250659778399533  1.0000
  C   C247      1.0  0.6111670583820312  0.14935479580506328  0.475163097025996  1.0000
  C   C248      1.0  0.8501131465649419  0.46185562594907414  0.47610070720156805  1.0000
  C   C249      1.0  0.5378184902779299  0.38820988909965526  0.47583955543635853  1.0000
  C   C250      1.0  0.2778340030870827  0.48268892150670745  0.8084971788091733  1.0000
  C   C251      1.0  0.5167786379333027  0.7951887857976295  0.8094369887373741  1.0000
  C   C252      1.0  0.20448548866204128  0.7215416502449022  0.8091743095686682  1.0000
  H   H145      1.0  0.015130169271066687  0.17479515240081886  0.9004818297675957  1.0000
  H   H146      1.0  0.8263116959560779  0.8408419356169551  0.9002403047366362  1.0000
  H   H147      1.0  0.15974523850063355  0.9857187552430001  0.9004937931817549  1.0000
  H   H148      1.0  0.6817980077911656  0.5081290843412656  0.23381146401758676  1.0000
  H   H149      1.0  0.49297742177854215  0.1741746028283984  0.23357792740003766  1.0000
  H   H150      1.0  0.8264135167662636  0.31905330904190826  0.2338276373579787  1.0000
  H   H151      1.0  0.3484635436557842  0.8414625052886383  0.5671475097337476  1.0000
  H   H152      1.0  0.15964341603087406  0.5075085184409059  0.5669107259189287  1.0000
  H   H153      1.0  0.49307998863286895  0.6523880744866783  0.5671643263597104  1.0000
  H   H154      1.0  0.9848793225715031  0.8254382386908931  0.09918064851602547  1.0000
  H   H155      1.0  0.17375987478381494  0.15930019241029786  0.10046788611006857  1.0000
  H   H156      1.0  0.8404189253521106  0.014352971211394318  0.10060337095668638  1.0000
  H   H157      1.0  0.6515463916873656  0.15877119436806833  0.43250799276254087  1.0000
  H   H158      1.0  0.8404236175583346  0.4926333382649379  0.4338008960253758  1.0000
  H   H159      1.0  0.5070853435848945  0.3476849930153348  0.4339334415872198  1.0000
  H   H160      1.0  0.3182111952174206  0.4921040231017198  0.7658413618871929  1.0000
  H   H161      1.0  0.5070923511211691  0.8259669929699422  0.7671332459827203  1.0000
  H   H162      1.0  0.17375107806911558  0.6810176713046233  0.7672655910227887  1.0000
  C   C253      1.0  0.07914380188215805  0.225431748372094  0.767585971642379  1.0000
  C   C254      1.0  0.7751768691979811  0.8536293560087568  0.7678415559903916  1.0000
  C   C255      1.0  0.1469678396828393  0.9219671024909704  0.7676648631008169  1.0000
  C   C256      1.0  0.7458094766200185  0.5587646970960696  0.10092565050067623  1.0000
  C   C257      1.0  0.44184461976690353  0.18696455564944808  0.10117298623082241  1.0000
  C   C258      1.0  0.8136347982716524  0.25530182820088343  0.10099927936969746  1.0000
  C   C259      1.0  0.4124769498670433  0.8920983383644054  0.4342577713195363  1.0000
  C   C260      1.0  0.10851204518503646  0.5202976629722884  0.43450528494881935  1.0000
  C   C261      1.0  0.4802999783225049  0.5886328236630869  0.43432760358925665  1.0000
  C   C262      1.0  0.920766518720926  0.7744674318479905  0.23164229255745938  1.0000
  C   C263      1.0  0.2249232734535654  0.14646853857875816  0.23268166858932396  1.0000
  C   C264      1.0  0.8531785518005996  0.07832395374665524  0.23287805582358706  1.0000
  C   C265      1.0  0.5874312150194211  0.10779910844955587  0.564984063030333  1.0000
  C   C266      1.0  0.8915932931944855  0.4798019782627684  0.56601052761898  1.0000
  C   C267      1.0  0.519845202336432  0.4116596419793394  0.5662130547732774  1.0000
  C   C268      1.0  0.2540999768230897  0.4411344040035128  0.898317491509188  1.0000
  C   C269      1.0  0.5582613084162934  0.8131363604458572  0.8993418305732588  1.0000
  C   C270      1.0  0.18651092766528393  0.7449901332312525  0.8995496989214055  1.0000
  H   H163      1.0  0.05641893991898284  0.24776917654715044  0.7411214196022584  1.0000
  H   H164      1.0  0.7533497019274433  0.8087041857921754  0.7408908035816492  1.0000
  H   H165      1.0  0.19197562222993245  0.9449160482508215  0.740684458471816  1.0000
  H   H166      1.0  0.7230882325549546  0.5811043085058776  0.07444984601992445  1.0000
  H   H167      1.0  0.4200165137138304  0.14204034922469302  0.07422553391851003  1.0000
  H   H168      1.0  0.8586426361070899  0.27824874722964604  0.07401675015960991  1.0000
  H   H169      1.0  0.38975350508932505  0.9144355922170793  0.40778459255951527  1.0000
  H   H170      1.0  0.0866836006797844  0.4753733957791552  0.40755795452367216  1.0000
  H   H171      1.0  0.5253074293902028  0.6115825729140735  0.40734961800633007  1.0000
  H   H172      1.0  0.9435179626786786  0.7521364192058855  0.2579834035719999  1.0000
  H   H173      1.0  0.24689660830864377  0.19142330391031986  0.25941973921109085  1.0000
  H   H174      1.0  0.8082191620006253  0.055245414292698414  0.2601772357730339  1.0000
  H   H175      1.0  0.6101857115131197  0.08547025020628314  0.5913088304401684  1.0000
  H   H176      1.0  0.9135611919712047  0.5247555121143868  0.5927526814371089  1.0000
  H   H177      1.0  0.474885674784604  0.3885763408329219  0.5935088923779385  1.0000
  H   H178      1.0  0.2768525122066453  0.41880335798254836  0.9246440476998878  1.0000
  H   H179      1.0  0.5802282908236479  0.8580900990086376  0.9260870328023445  1.0000
  H   H180      1.0  0.14155030458918685  0.7219093601696216  0.9268408922970929  1.0000
  C   C271      1.0  0.21608911827173244  0.3288018987252667  0.6451309041927011  1.0000
  C   C272      1.0  0.6704290578965011  0.8856789757866111  0.6474795776017889  1.0000
  C   C273      1.0  0.1151861836183521  0.7856011986339239  0.6475049428775236  1.0000
  C   C274      1.0  0.8827566037535376  0.6621358339716791  0.9784632731222546  1.0000
  C   C275      1.0  0.33709596212667753  0.2190116067867628  0.980811678840508  1.0000
  C   C276      1.0  0.7818521392271233  0.11893217034218093  0.9808400050622963  1.0000
  C   C277      1.0  0.5494233563091061  0.9954699110393548  0.31179633399073586  1.0000
  C   C278      1.0  0.003762617938962265  0.5523448912100088  0.31414494311980323  1.0000
  C   C279      1.0  0.44851976499151586  0.4522678320407831  0.31417046835283047  1.0000
  C   C280      1.0  0.7838221193176376  0.6709425526746908  0.35363042686888757  1.0000
  C   C281      1.0  0.32954607225660626  0.11429945904335093  0.3526741595344726  1.0000
  C   C282      1.0  0.885148213356855  0.2148873602413222  0.35385452966216163  1.0000
  C   C283      1.0  0.4504899105371795  0.004276802549652237  0.6869635231610579  1.0000
  C   C284      1.0  0.996212469758861  0.44763311677920614  0.686007654339501  1.0000
  C   C285      1.0  0.5518142317063012  0.5482197449748047  0.687187143788049  1.0000
  C   C286      1.0  0.11715703853943082  0.33761073105464035  0.020296380572061942  1.0000
  C   C287      1.0  0.6628787492482187  0.7809663446590671  0.01933971192273591  1.0000
  C   C288      1.0  0.21848339229846106  0.8815571104968986  0.020517869371619236  1.0000
  H   H181      1.0  0.24424094293347348  0.31044235002894444  0.65541746628589  1.0000
  H   H182      1.0  0.6881895023777376  0.9319745908500404  0.659021772199501  1.0000
  H   H183      1.0  0.06888446882588427  0.7571035428047233  0.6598489498232419  1.0000
  H   H184      1.0  0.9109063379873328  0.6437741013775706  0.9887496637403547  1.0000
  H   H185      1.0  0.3548550360848498  0.2653060898398642  0.992354443469402  1.0000
  H   H186      1.0  0.7355488969615049  0.0904362669570553  0.9931799653809102  1.0000
  H   H187      1.0  0.5775733725475058  0.9771077446348748  0.32208515791465275  1.0000
  H   H188      1.0  0.021521833104771432  0.5986407108190689  0.32568760326640456  1.0000
  H   H189      1.0  0.40221798468610975  0.4237707280787929  0.326514121605596  1.0000
  H   H190      1.0  0.755669458132259  0.6893051568595189  0.3434862473582335  1.0000
  H   H191      1.0  0.31169664551382653  0.067979504376786  0.34139022354030624  1.0000
  H   H192      1.0  0.9314820234667034  0.24333360408333307  0.3418229381598655  1.0000
  H   H193      1.0  0.422336024251275  0.02263646461568163  0.676817446447624  1.0000
  H   H194      1.0  0.9783644413786513  0.40131460071959474  0.6747237723971347  1.0000
  H   H195      1.0  0.5981476075700881  0.5766670380856512  0.6751560257867086  1.0000
  H   H196      1.0  0.08900312175466811  0.3559712417315936  0.010151556904278465  1.0000
  H   H197      1.0  0.6450306623714834  0.7346470282001448  0.008057910129595024  1.0000
  H   H198      1.0  0.26482002130717514  0.9100022333055191  0.00848975122251107  1.0000
  H   H199      1.0  0.21579323899320657  0.34889378970350454  0.731466367598394  1.0000
  H   H200      1.0  0.6503591699078299  0.864729123807649  0.7334373964814932  1.0000
  H   H201      1.0  0.13636492668708544  0.7867979188904256  0.7332159694109419  1.0000
  H   H202      1.0  0.8824589386274372  0.6822260439640847  0.06479884731762425  1.0000
  H   H203      1.0  0.317026361823493  0.19806314701208394  0.06676887692375605  1.0000
  H   H204      1.0  0.8030345394322734  0.12013330938196637  0.06655051984186962  1.0000
  H   H205      1.0  0.5491267162245603  0.01556070119003633  0.3981357565683617  1.0000
  H   H206      1.0  0.9836924115971992  0.5313960370378603  0.40010483537341796  1.0000
  H   H207      1.0  0.4696991105037598  0.4534661582945981  0.3998803815546711  1.0000
  H   H208      1.0  0.7841767982650015  0.6509782668402425  0.26716400991063105  1.0000
  H   H209      1.0  0.34950495283129585  0.1351300341359055  0.2665546659375752  1.0000
  H   H210      1.0  0.8641000595175512  0.21404000988094637  0.2681763556852618  1.0000
  H   H211      1.0  0.45084198047194035  0.984312125899276  0.6004993789977983  1.0000
  H   H212      1.0  0.016170557415907665  0.46846193252925256  0.5998898965792985  1.0000
  H   H213      1.0  0.5307673010614685  0.5473748987951432  0.6015079630045759  1.0000
  H   H214      1.0  0.11751024191771901  0.317645451318528  0.9338327643923413  1.0000
  H   H215      1.0  0.682839310981858  0.8017967631591051  0.9332209584738053  1.0000
  H   H216      1.0  0.19743087352114277  0.8807058092887693  0.9348380304817302  1.0000
  H   H217      1.0  0.23454573099695805  0.3622776061998028  0.5752593255613557  1.0000
  H   H218      1.0  0.6369707046771389  0.8706601015359422  0.5776741568364289  1.0000
  H   H219      1.0  0.1301538090223716  0.7670275191053593  0.5776388578849688  1.0000
  H   H220      1.0  0.9012140538922175  0.6956126764850336  0.9085907512876462  1.0000
  H   H221      1.0  0.3036375118097358  0.2039939828185644  0.911008008758694  1.0000
  H   H222      1.0  0.796821214991818  0.10035980159845835  0.9109704401778947  1.0000
  H   H223      1.0  0.5678810674791739  0.028947353755967405  0.24192262080034324  1.0000
  H   H224      1.0  0.9703038683231893  0.5373271606871365  0.24433867960445524  1.0000
  H   H225      1.0  0.463488289521555  0.43369648049746673  0.2443037370194537  1.0000
  H   H226      1.0  0.7653448479235729  0.6373811568355009  0.4233173502705065  1.0000
  H   H227      1.0  0.3631244450601332  0.1293433087830045  0.42221475013539733  1.0000
  H   H228      1.0  0.8702040321037927  0.23334233247723554  0.42402790288716563  1.0000
  H   H229      1.0  0.4320116612825763  0.9707158141528198  0.7566453841906777  1.0000
  H   H230      1.0  0.02978892390913668  0.462676415661313  0.7555480307995862  1.0000
  H   H231      1.0  0.536871254755105  0.5666743593849689  0.7573606956116296  1.0000
  H   H232      1.0  0.09867944640805452  0.30404937134050936  0.08997994070448743  1.0000
  H   H233      1.0  0.6964569097935907  0.7960096070051462  0.08887834334279282  1.0000
  H   H234      1.0  0.20353528025313783  0.9000065465267314  0.0906975812518968  1.0000
  C   C289      1.0  0.1241829993584676  0.2057320597414606  0.29538721533969314  1.0000
  C   C290      1.0  0.794596063562265  0.9201172528894583  0.29694199415032846  1.0000
  C   C291      1.0  0.07987215553643008  0.8745082972267733  0.2968554643690449  1.0000
  C   C292      1.0  0.7908496793901281  0.5390657532195334  0.6287201443797694  1.0000
  C   C293      1.0  0.461262450788466  0.25345136713797095  0.630274995470309  1.0000
  C   C294      1.0  0.7465395322519282  0.20784225752048552  0.6301899490826636  1.0000
  C   C295      1.0  0.45751636650207006  0.8723986598703841  0.9620545619698836  1.0000
  C   C296      1.0  0.1279296774190551  0.5867851590085811  0.9636078478971194  1.0000
  C   C297      1.0  0.413205820238041  0.541175547003874  0.9635222555721797  1.0000
  C   C298      1.0  0.8755223236526  0.7938974808919591  0.703814235219129  1.0000
  C   C299      1.0  0.2058198360830833  0.08038062861609477  0.7039326440046166  1.0000
  C   C300      1.0  0.9196280097193467  0.12494108670973768  0.7035499400252775  1.0000
  C   C301      1.0  0.5421888570973293  0.12723142030331297  0.037148039258086844  1.0000
  C   C302      1.0  0.872486720996967  0.4137138357984775  0.03726671793385089  1.0000
  C   C303      1.0  0.5862957153946873  0.45827508500245095  0.0368829320518348  1.0000
  C   C304      1.0  0.20885572094368257  0.4605648323152188  0.37048243130079483  1.0000
  C   C305      1.0  0.5391535892888129  0.7470482218218891  0.3705984796087103  1.0000
  C   C306      1.0  0.25296044487387115  0.7916075176467025  0.3702152602524383  1.0000
  H   H235      1.0  0.141129152843425  0.17661804147046342  0.3094134857655186  1.0000
  H   H236      1.0  0.8237681666006523  0.9659284525846864  0.31278115038214627  1.0000
  H   H237      1.0  0.0340404188384089  0.8580516251532743  0.3132018400065283  1.0000
  H   H238      1.0  0.8077958286475961  0.5099510852505593  0.6427461683456204  1.0000
  H   H239      1.0  0.4904359620755947  0.29926266712561295  0.6461141118421162  1.0000
  H   H240      1.0  0.700707375882584  0.19138492711076438  0.6465346086051967  1.0000
  H   H241      1.0  0.4744629499302867  0.8432851421944486  0.976079393570041  1.0000
  H   H242      1.0  0.15710262983885784  0.632596836071216  0.9794475003159221  1.0000
  H   H243      1.0  0.3673733874346061  0.5247178620892411  0.9798674073731347  1.0000
  H   H244      1.0  0.8584857119076552  0.8229404371224578  0.6898962337155103  1.0000
  H   H245      1.0  0.17671917387186692  0.034487004876656346  0.6888328006300447  1.0000
  H   H246      1.0  0.9655419749726677  0.1415860971059133  0.6879846444531581  1.0000
  H   H247      1.0  0.5251516168506143  0.1562743801254603  0.0232288280791576  1.0000
  H   H248      1.0  0.8433851414918883  0.36781977435790975  0.022165476345074705  1.0000
  H   H249      1.0  0.6322102767469499  0.4749206586496533  0.02131855281919941  1.0000
  H   H250      1.0  0.19181876112242943  0.48960736155764034  0.35656179074288896  1.0000
  H   H251      1.0  0.5100528039914711  0.7011545518712731  0.3554986144501266  1.0000
  H   H252      1.0  0.29887379772584144  0.8082523869494406  0.3546525782616213  1.0000
  H   H253      1.0  0.15666456501322443  0.2438439296608051  0.24717982083340032  1.0000
  H   H254      1.0  0.7565633978639595  0.9150252327799631  0.24931523607489614  1.0000
  H   H255      1.0  0.08481202642680476  0.8414746837763118  0.24908556893562686  1.0000
  H   H256      1.0  0.8233317966018284  0.5771781422616318  0.5805127261291989  1.0000
  H   H257      1.0  0.4232287462145161  0.24835826753807502  0.582649472462103  1.0000
  H   H258      1.0  0.7514771503200337  0.17480746527765195  0.5824178232153868  1.0000
  H   H259      1.0  0.48999630370257624  0.9105095208612934  0.9138454519415664  1.0000
  H   H260      1.0  0.08989551914985551  0.5816911782454767  0.9159824943206462  1.0000
  H   H261      1.0  0.41814509247354215  0.5081413322757838  0.9157516587730651  1.0000
  H   H262      1.0  0.8431262593698029  0.7557501106674166  0.7520594153962813  1.0000
  H   H263      1.0  0.24396751325825822  0.08572020935019466  0.751516213008531  1.0000
  H   H264      1.0  0.9143710136514963  0.15769008079268856  0.7517114236014941  1.0000
  H   H265      1.0  0.5097929678310816  0.08908333381213451  0.08539217442823632  1.0000
  H   H266      1.0  0.9106354689432873  0.4190545821664541  0.08484992576340117  1.0000
  H   H267      1.0  0.581037944018397  0.4910239085105098  0.08504387550731198  1.0000
  H   H268      1.0  0.176459611740861  0.4224164022966246  0.4187246264725196  1.0000
  H   H269      1.0  0.5773008799806499  0.7523870600066924  0.4181832021039502  1.0000
  H   H270      1.0  0.24770556037035074  0.8243575088096264  0.4183774860943368  1.0000
  H   H271      1.0  0.08597573266207106  0.18338745988735206  0.2381817754074666  1.0000
  H   H272      1.0  0.8170236907215394  0.9047142666132197  0.23834386329006643  1.0000
  H   H273      1.0  0.09527252401938384  0.9121999835309422  0.2381005483446885  1.0000
  H   H274      1.0  0.7526414524547145  0.516720166032033  0.5715140704185422  1.0000
  H   H275      1.0  0.48369139591689836  0.2380490091090477  0.5716770624132733  1.0000
  H   H276      1.0  0.7619386058499321  0.2455330453129814  0.5714331510000447  1.0000
  H   H277      1.0  0.41931064247351907  0.8500561482372176  0.9048474592989535  1.0000
  H   H278      1.0  0.15035717693027756  0.5713812685067791  0.9050116729960178  1.0000
  H   H279      1.0  0.42860593090028093  0.5788670342959167  0.9047650023762631  1.0000
  H   H280      1.0  0.9137474550524035  0.8162883606754484  0.7609695757130583  1.0000
  H   H281      1.0  0.1833960937067656  0.09587254984519335  0.7623001343258071  1.0000
  H   H282      1.0  0.9040690956853782  0.08696848492665259  0.761510652852315  1.0000
  H   H283      1.0  0.5804147099681473  0.14962172798121037  0.09430465263905644  1.0000
  H   H284      1.0  0.850063058880103  0.42920620392795805  0.09563544083686189  1.0000
  H   H285      1.0  0.5707355797040302  0.420302196737922  0.09484204160364054  1.0000
  H   H286      1.0  0.24708172772846215  0.4829556916760246  0.42763778269599795  1.0000
  H   H287      1.0  0.5167293923748374  0.7625392045350737  0.4289664536779144  1.0000
  H   H288      1.0  0.23740433760679  0.7536366346089909  0.4281785256045603  1.0000
  C   C307      1.0  0.06287985492481274  0.16844736264395752  0.47893471154633727  1.0000
  C   C308      1.0  0.8313269950104645  0.8942789674762939  0.47864824432728437  1.0000
  C   C309      1.0  0.10585818035452996  0.937112984453379  0.47847615191205584  1.0000
  C   C310      1.0  0.7295464904556063  0.5017811749142732  0.8122683329145836  1.0000
  C   C311      1.0  0.4979916927507444  0.22761171967250587  0.8119816077238644  1.0000
  C   C312      1.0  0.7725250023921327  0.270447176653236  0.8118102265919079  1.0000
  C   C313      1.0  0.3962135473177588  0.8351142991749103  0.1456003914475967  1.0000
  C   C314      1.0  0.16465963933556454  0.5609458669440333  0.1453160228464296  1.0000
  C   C315      1.0  0.43919255563679377  0.6037804441629318  0.14514079162311538  1.0000
  C   C316      1.0  0.9368489159551503  0.8311542188784425  0.5202436045792083  1.0000
  C   C317      1.0  0.1686062754611936  0.10538152547743611  0.5218890090466954  1.0000
  C   C318      1.0  0.8942366483921219  0.06291865843534736  0.5211601135044345  1.0000
  C   C319      1.0  0.6035145927348389  0.16448659791443457  0.8535794834069331  1.0000
  C   C320      1.0  0.8352727390445808  0.43871528220269  0.8552222180296081  1.0000
  C   C321      1.0  0.5609027283182529  0.39625198816231183  0.8544933717427892  1.0000
  C   C322      1.0  0.2701819001634085  0.4978194626167715  0.1869125468731391  1.0000
  C   C323      1.0  0.5019401866200383  0.7720493099513879  0.18855505515002738  1.0000
  C   C324      1.0  0.2275692462806447  0.7295839253117791  0.18782690338717323  1.0000
  H   H289      1.0  0.07975708454871278  0.1404663857389565  0.505694199313929  1.0000
  H   H290      1.0  0.8591147878788403  0.9386491391262772  0.5083330129192556  1.0000
  H   H291      1.0  0.06147195609779616  0.9206287752437459  0.5085974596341277  1.0000
  H   H292      1.0  0.7464237589910104  0.4737997706937137  0.8390266420126316  1.0000
  H   H293      1.0  0.5257813864183292  0.2719806983033534  0.8416642682911857  1.0000
  H   H294      1.0  0.7281386763556322  0.2539624734091957  0.8419321898032975  1.0000
  H   H295      1.0  0.4130902368349199  0.8071329882931362  0.17236186886294472  1.0000
  H   H296      1.0  0.19244836173637453  0.6053153575955981  0.17499909485393206  1.0000
  H   H297      1.0  0.39480692993051075  0.5872956427058417  0.17526309451294644  1.0000
  H   H298      1.0  0.9198717005341962  0.8589147971312211  0.4924187671513578  1.0000
  H   H299      1.0  0.14098809415741284  0.060883869314725295  0.492837396946796  1.0000
  H   H300      1.0  0.9387104926954914  0.07955428786676595  0.4915535025359027  1.0000
  H   H301      1.0  0.5865388678946674  0.19224783476866558  0.8257497126919948  1.0000
  H   H302      1.0  0.8076542490857286  0.3942164375271557  0.8261708005233467  1.0000
  H   H303      1.0  0.6053760842903039  0.4128874988531119  0.824886618784417  1.0000
  H   H304      1.0  0.25320617176795346  0.5255805614838699  0.15908587025855406  1.0000
  H   H305      1.0  0.4743229041535008  0.7275526019208887  0.15950496370962505  1.0000
  H   H306      1.0  0.2720427579707554  0.7462210380182083  0.158221682845271  1.0000
  H   H307      1.0  0.026992237115219808  0.14461564063238494  0.41635315496060243  1.0000
  H   H308      1.0  0.8555782431496405  0.8831724288218422  0.4147441090820837  1.0000
  H   H309      1.0  0.11691054206031332  0.9723581649288439  0.4145808190897983  1.0000
  H   H310      1.0  0.693658572228525  0.47794791311346235  0.7496864037970252  1.0000
  H   H311      1.0  0.5222455547057083  0.2165075002252288  0.7480814551970842  1.0000
  H   H312      1.0  0.7835773718070127  0.30569118422196573  0.7479125004070694  1.0000
  H   H313      1.0  0.36032600592367076  0.8112830160417647  0.0830194221610984  1.0000
  H   H314      1.0  0.18891135054943303  0.5498400105678567  0.08141405417261288  1.0000
  H   H315      1.0  0.45024424315917944  0.6390255407764505  0.08124607119551142  1.0000
  H   H316      1.0  0.9725194214695427  0.8552692578873571  0.5831577080323141  1.0000
  H   H317      1.0  0.14426369023118507  0.11645369256625882  0.5855829560743447  1.0000
  H   H318      1.0  0.8830531619868977  0.027491817465144418  0.5846521320460533  1.0000
  H   H319      1.0  0.6391861992409419  0.18860219487117102  0.9164915399456718  1.0000
  H   H320      1.0  0.8109294681874339  0.4497873992568141  0.9189177526113935  1.0000
  H   H321      1.0  0.5497197770891489  0.3608248710724758  0.9179830020591261  1.0000
  H   H322      1.0  0.30585344516772406  0.5219371461129524  0.2498243865772087  1.0000
  H   H323      1.0  0.47759703484264204  0.783120325620439  0.252248328375252  1.0000
  H   H324      1.0  0.21638706665006152  0.6941575014529636  0.2513202083206911  1.0000
  H   H325      1.0  0.046974886919164884  0.17917213740678226  0.5607125756411828  1.0000
  H   H326      1.0  0.8202310659555729  0.8665064839700731  0.5585525542800276  1.0000
  H   H327      1.0  0.13377215899281636  0.9538037798968974  0.5580730301187492  1.0000
  H   H328      1.0  0.7136418971477201  0.5125056689294686  0.8940483101495558  1.0000
  H   H329      1.0  0.4868990590875998  0.19984028600471954  0.8918861454833487  1.0000
  H   H330      1.0  0.8004389496438897  0.287136745292463  0.8914066474820089  1.0000
  H   H331      1.0  0.3803083983591609  0.845838584881172  0.22737840046128896  1.0000
  H   H332      1.0  0.15356542413949983  0.5331732996711219  0.225219383258773  1.0000
  H   H333      1.0  0.46710568618803056  0.620470947917964  0.2247374106175377  1.0000
  H   H334      1.0  0.953119864051263  0.820359912099486  0.439133201239536  1.0000
  H   H335      1.0  0.17946549580481153  0.13289478909333605  0.4416111478050934  1.0000
  H   H336      1.0  0.8665777795849272  0.046461934203190225  0.44115360400662673  1.0000
  H   H337      1.0  0.6197859339966603  0.15369413399409257  0.7724683890797147  1.0000
  H   H338      1.0  0.8461332958785157  0.46622934751059525  0.7749431876028684  1.0000
  H   H339      1.0  0.5332443287757244  0.3797949940652121  0.7744867401390837  1.0000
  H   H340      1.0  0.28645311432728343  0.48702769648430433  0.10579909329801104  1.0000
  H   H341      1.0  0.5127987067428688  0.7995614662691042  0.1082768746573678  1.0000
  H   H342      1.0  0.19991134230220753  0.7131291934175533  0.10781877342557365  1.0000
  O   O19       1.0  0.05768893017840611  0.11258219184797705  0.9788865949700621  1.0000
  O   O20       1.0  0.8874355288825633  0.9453594093520463  0.9795359437454739  1.0000
  O   O21       1.0  0.055068726246076505  0.9425604641693123  0.9800983616855523  1.0000
  O   O22       1.0  0.7243542482584765  0.44591474740613557  0.31221929964666656  1.0000
  O   O23       1.0  0.5541007515025489  0.27869475360260226  0.3128688995797882  1.0000
  O   O24       1.0  0.7217350403347631  0.2758924334183514  0.3134337896271053  1.0000
  O   O25       1.0  0.3910237063095567  0.7792493695906887  0.6455503976472984  1.0000
  O   O26       1.0  0.22076659704597854  0.6120269881471614  0.6462028328952664  1.0000
  O   O27       1.0  0.3884028131090567  0.6092277562269106  0.6467656609582318  1.0000
  O   O28       1.0  0.9424354285036292  0.8877942616635432  0.021582968866591598  1.0000
  O   O29       1.0  0.11232255371506626  0.05472429033297089  0.02165950014185768  1.0000
  O   O30       1.0  0.9451057017785828  0.057728968590843754  0.02053179117672459  1.0000
  O   O31       1.0  0.6091003480175015  0.22112690800540244  0.3549162046444197  1.0000
  O   O32       1.0  0.778989141715477  0.3880594929303138  0.35499294177679064  1.0000
  O   O33       1.0  0.6117720131103109  0.3910611364907199  0.3538673584253895  1.0000
  O   O34       1.0  0.27576650653943285  0.5544591758233017  0.6882493963798851  1.0000
  O   O35       1.0  0.44565589806680156  0.7213915353255268  0.6883275749450375  1.0000
  O   O36       1.0  0.278439659697057  0.7243946484862478  0.6871965779644024  1.0000
  H   H343      1.0  0.07949984096924842  0.09176873685066417  0.9927736125929293  1.0000
  H   H344      1.0  0.908250922016849  0.9879614443772035  0.9929071567191464  1.0000
  H   H345      1.0  0.012458454033478183  0.9207531841405742  0.9939737497287048  1.0000
  H   H346      1.0  0.7461649705730417  0.42510166431168256  0.32610759953791535  1.0000
  H   H347      1.0  0.574919534238071  0.32129792908487953  0.32624017679361356  1.0000
  H   H348      1.0  0.6791243438258514  0.2540860191979731  0.327305916032496  1.0000
  H   H349      1.0  0.41283288816859287  0.7584341652961791  0.6594381113952501  1.0000
  H   H350      1.0  0.24158633210687783  0.6546300535216703  0.6595725612790422  1.0000
  H   H351      1.0  0.3457920602633633  0.5874214342191841  0.6606377660806058  1.0000
  H   H352      1.0  0.9206142580784376  0.9085971910163546  0.007707460356954332  1.0000
  H   H353      1.0  0.09169749335892832  0.012150514941767842  0.007789865746403656  1.0000
  H   H354      1.0  0.9877240877933394  0.07957644217825392  0.006680558039859696  1.0000
  H   H355      1.0  0.5872793019169373  0.24193109892487685  0.3410399886487572  1.0000
  H   H356      1.0  0.7583643985564417  0.3454863472562005  0.34111970540582814  1.0000
  H   H357      1.0  0.6543904617691296  0.41290926938702527  0.34001308488626486  1.0000
  H   H358      1.0  0.25394901830446187  0.5752667772406856  0.6743689910765801  1.0000
  H   H359      1.0  0.4250296973079342  0.678817808316676  0.6744526885244277  1.0000
  H   H360      1.0  0.3210584409654285  0.7462452512555268  0.673346623787321  1.0000
